 Resolving package versions...
 Installed Reexport ───────── v0.2.0
 Installed IncGammaBeta ───── v0.1.0
 Installed Conda ──────────── v1.3.0
 Installed VersionParsing ─── v1.1.3
 Installed BinDeps ────────── v0.8.10
 Installed BinaryProvider ─── v0.5.8
 Installed AbstractAlgebra ── v0.7.1
 Installed Parsers ────────── v0.3.10
 Installed AbstractFFTs ───── v0.5.0
 Installed JSON ───────────── v0.21.0
 Installed FFTW ───────────── v1.1.0
 Installed SpecialFunctions ─ v0.8.0
 Installed URIParser ──────── v0.4.0
 Installed Nemo ───────────── v0.15.1
 Installed Compat ─────────── v2.2.0
 Installed TwoFAST ────────── v0.1.0
  Updating `~/.julia/environments/v1.0/Project.toml`
  [0dd23c3e] + TwoFAST v0.1.0
  Updating `~/.julia/environments/v1.0/Manifest.toml`
  [c3fe647b] + AbstractAlgebra v0.7.1
  [621f4979] + AbstractFFTs v0.5.0
  [9e28174c] + BinDeps v0.8.10
  [b99e7846] + BinaryProvider v0.5.8
  [34da2185] + Compat v2.2.0
  [8f4d0f93] + Conda v1.3.0
  [7a1cc6ca] + FFTW v1.1.0
  [5087d2c0] + IncGammaBeta v0.1.0
  [682c06a0] + JSON v0.21.0
  [2edaba10] + Nemo v0.15.1
  [69de0a69] + Parsers v0.3.10
  [189a3867] + Reexport v0.2.0
  [276daf66] + SpecialFunctions v0.8.0
  [0dd23c3e] + TwoFAST v0.1.0
  [30578b45] + URIParser v0.4.0
  [81def892] + VersionParsing v1.1.3
  [2a0f44e3] + Base64 
  [ade2ca70] + Dates 
  [8bb1440f] + DelimitedFiles 
  [8ba89e20] + Distributed 
  [b77e0a4c] + InteractiveUtils 
  [76f85450] + LibGit2 
  [8f399da3] + Libdl 
  [37e2e46d] + LinearAlgebra 
  [56ddb016] + Logging 
  [d6f4376e] + Markdown 
  [a63ad114] + Mmap 
  [44cfe95a] + Pkg 
  [de0858da] + Printf 
  [3fa0cd96] + REPL 
  [9a3f8284] + Random 
  [ea8e919c] + SHA 
  [9e88b42a] + Serialization 
  [1a1011a3] + SharedArrays 
  [6462fe0b] + Sockets 
  [2f01184e] + SparseArrays 
  [10745b16] + Statistics 
  [8dfed614] + Test 
  [cf7118a7] + UUIDs 
  [4ec0a83e] + Unicode 
  Building Conda ───────────→ `~/.julia/packages/Conda/kLXeC/deps/build.log`
  Building Nemo ────────────→ `~/.julia/packages/Nemo/qzx0m/deps/build.log`
  Building SpecialFunctions → `~/.julia/packages/SpecialFunctions/ne2iw/deps/build.log`
  Building FFTW ────────────→ `~/.julia/packages/FFTW/loJ3F/deps/build.log`
   Testing TwoFAST
 Resolving package versions...
 Installed Dierckx ─ v0.4.1
  Building Dierckx → `~/.julia/packages/Dierckx/9SY4A/deps/build.log`
    Status `/tmp/tmpIImHCZ/Manifest.toml`
  [c3fe647b] AbstractAlgebra v0.7.1
  [621f4979] AbstractFFTs v0.5.0
  [9e28174c] BinDeps v0.8.10
  [b99e7846] BinaryProvider v0.5.8
  [34da2185] Compat v2.2.0
  [8f4d0f93] Conda v1.3.0
  [39dd38d3] Dierckx v0.4.1
  [7a1cc6ca] FFTW v1.1.0
  [5087d2c0] IncGammaBeta v0.1.0
  [682c06a0] JSON v0.21.0
  [2edaba10] Nemo v0.15.1
  [69de0a69] Parsers v0.3.10
  [189a3867] Reexport v0.2.0
  [276daf66] SpecialFunctions v0.8.0
  [0dd23c3e] TwoFAST v0.1.0
  [30578b45] URIParser v0.4.0
  [81def892] VersionParsing v1.1.3
  [2a0f44e3] Base64  [`@stdlib/Base64`]
  [ade2ca70] Dates  [`@stdlib/Dates`]
  [8bb1440f] DelimitedFiles  [`@stdlib/DelimitedFiles`]
  [8ba89e20] Distributed  [`@stdlib/Distributed`]
  [b77e0a4c] InteractiveUtils  [`@stdlib/InteractiveUtils`]
  [76f85450] LibGit2  [`@stdlib/LibGit2`]
  [8f399da3] Libdl  [`@stdlib/Libdl`]
  [37e2e46d] LinearAlgebra  [`@stdlib/LinearAlgebra`]
  [56ddb016] Logging  [`@stdlib/Logging`]
  [d6f4376e] Markdown  [`@stdlib/Markdown`]
  [a63ad114] Mmap  [`@stdlib/Mmap`]
  [44cfe95a] Pkg  [`@stdlib/Pkg`]
  [de0858da] Printf  [`@stdlib/Printf`]
  [3fa0cd96] REPL  [`@stdlib/REPL`]
  [9a3f8284] Random  [`@stdlib/Random`]
  [ea8e919c] SHA  [`@stdlib/SHA`]
  [9e88b42a] Serialization  [`@stdlib/Serialization`]
  [1a1011a3] SharedArrays  [`@stdlib/SharedArrays`]
  [6462fe0b] Sockets  [`@stdlib/Sockets`]
  [2f01184e] SparseArrays  [`@stdlib/SparseArrays`]
  [10745b16] Statistics  [`@stdlib/Statistics`]
  [8dfed614] Test  [`@stdlib/Test`]
  [cf7118a7] UUIDs  [`@stdlib/UUIDs`]
  [4ec0a83e] Unicode  [`@stdlib/Unicode`]

Welcome to Nemo version 0.15.1

Nemo comes with absolutely no warranty whatsoever


Welcome to Nemo version 0.15.1

Nemo comes with absolutely no warranty whatsoever

Testing ξ(r), ℓ=0, ν=-1 ... passed
Testing ξ(r), ℓ=0, ν=0 ... passed
Testing ξ(r), ℓ=0, ν=1 ... passed
Testing ξ(r), ℓ=0, ν=2 ... passed
Testing ξ(r), ℓ=0, ν=3 ... passed
Testing ξ(r), ℓ=1, ν=0 ... passed
Testing ξ(r), ℓ=1, ν=1 ... passed
Testing ξ(r), ℓ=1, ν=2 ... passed
Testing ξ(r), ℓ=1, ν=3 ... passed
Testing ξ(r), ℓ=2, ν=-1 ... passed
Testing ξ(r), ℓ=2, ν=0 ... passed
Testing ξ(r), ℓ=2, ν=1 ... passed
Testing ξ(r), ℓ=2, ν=2 ... passed
Testing ξ(r), ℓ=2, ν=3 ... passed
Testing ξ(r), ℓ=3, ν=-1 ... passed
Testing ξ(r), ℓ=3, ν=0 ... passed
Testing ξ(r), ℓ=3, ν=1 ... passed
Testing ξ(r), ℓ=3, ν=2 ... passed
Testing ξ(r), ℓ=3, ν=3 ... passed
Testing ξ(r), ℓ=4, ν=-1 ... passed
Testing ξ(r), ℓ=4, ν=0 ... passed
Testing ξ(r), ℓ=4, ν=1 ... passed
Testing ξ(r), ℓ=4, ν=2 ... passed
Testing ξ(r), ℓ=4, ν=3 ... passed
Testing ξ(r) ... passed
Testing ξ′(r) ... passed
Testing ξ″(r) ... passed
Calculating fmax: 
  dlrec    = 4
  dlrecRg1 = -4
  q=1.1, R=1.1:	  5.517112 seconds (1.38 M allocations: 127.860 MiB, 1.38% gc time)

  5.815221 seconds (1.50 M allocations: 133.971 MiB, 1.31% gc time)
ℓ = 1202
Δℓ = 4
ΔℓRg1 = -4
N = 1600
q = 1.1
kmin = 1.0e-5
kmax = 100000.00000000004
χ0 = 0.023029999999999995
RR = RR.tsv
ℓmax = ℓmax.bin
f21 = f21.bin
kmin = 1.0e-5
kmax = 100000.0
dlrec    = 4
dlrecRg1 = -4
Output size: 5741568 bytes = 0.005347251892089844 GiB
Output size: 51264 bytes = 4.774332046508789e-5 GiB
Reading 'out/F21EllCache'...   0.803424 seconds (498.64 k allocations: 25.907 MiB, 2.16% gc time)
ellmax: 1202
lmaxcache: 1202
fell[:,1,1] = Complex{Float64}[3.95838e-52-9.69523e-68im, 3.99012e-52-9.77298e-68im]
ell 1202, elapsed: 0.03191399574279785
ell 1201, elapsed: 2.0042898654937744
ell 1200, elapsed: 0.00047898292541503906
ell 1199, elapsed: 0.0004680156707763672
ell 1198, elapsed: 0.0004439353942871094
ell 1002, elapsed: 0.012525081634521484
ell 1001, elapsed: 0.0005199909210205078
ell 1000, elapsed: 0.00046706199645996094
ell 999, elapsed: 0.0004608631134033203
ell 998, elapsed: 0.0004639625549316406
ell 902, elapsed: 0.006710052490234375
ell 901, elapsed: 0.0004971027374267578
ell 900, elapsed: 0.0004990100860595703
ell 899, elapsed: 0.0004839897155761719
ell 898, elapsed: 0.0004801750183105469
ell 802, elapsed: 0.007311105728149414
ell 801, elapsed: 0.0004899501800537109
ell 800, elapsed: 0.0004711151123046875
ell 799, elapsed: 0.0005719661712646484
ell 798, elapsed: 0.0004589557647705078
ell 702, elapsed: 0.006111860275268555
ell 701, elapsed: 0.0004851818084716797
ell 700, elapsed: 0.0012409687042236328
ell 699, elapsed: 0.0004839897155761719
ell 698, elapsed: 0.0004668235778808594
ell 602, elapsed: 0.0048520565032958984
ell 601, elapsed: 0.0005030632019042969
ell 600, elapsed: 0.003114938735961914
ell 599, elapsed: 0.0004968643188476562
ell 598, elapsed: 0.0005190372467041016
ell 502, elapsed: 0.006005048751831055
ell 501, elapsed: 0.0004839897155761719
ell 500, elapsed: 0.0004680156707763672
ell 499, elapsed: 0.0004680156707763672
ell 498, elapsed: 0.0004978179931640625
ell 402, elapsed: 0.0065729618072509766
ell 401, elapsed: 0.00048089027404785156
ell 400, elapsed: 0.0011031627655029297
ell 399, elapsed: 0.0004858970642089844
ell 398, elapsed: 0.0004839897155761719
ell 302, elapsed: 0.005611896514892578
ell 301, elapsed: 0.0020859241485595703
ell 300, elapsed: 0.0004999637603759766
ell 299, elapsed: 0.0004799365997314453
ell 298, elapsed: 0.0004909038543701172
ell 202, elapsed: 0.007024049758911133
ell 201, elapsed: 0.0005211830139160156
ell 200, elapsed: 0.0004951953887939453
ell 199, elapsed: 0.0005199909210205078
ell 198, elapsed: 0.0004889965057373047
ell 152, elapsed: 0.0025877952575683594
ell 151, elapsed: 0.0016131401062011719
ell 150, elapsed: 0.0005290508270263672
ell 149, elapsed: 0.0004849433898925781
ell 148, elapsed: 0.0005140304565429688
ell 127, elapsed: 0.021877050399780273
ell 126, elapsed: 0.0004949569702148438
ell 125, elapsed: 0.0004711151123046875
ell 124, elapsed: 0.0004799365997314453
ell 123, elapsed: 0.00045013427734375
ell 114, elapsed: 0.0009181499481201172
ell 113, elapsed: 0.00047707557678222656
ell 112, elapsed: 0.00047898292541503906
ell 111, elapsed: 0.0004668235778808594
ell 110, elapsed: 0.00045800209045410156
ell 102, elapsed: 0.0010750293731689453
ell 101, elapsed: 0.0004980564117431641
ell 100, elapsed: 0.0004661083221435547
ell 99, elapsed: 0.00045990943908691406
ell 98, elapsed: 0.0004849433898925781
ell 97, elapsed: 0.0005819797515869141
ell 96, elapsed: 0.000759124755859375
ell 95, elapsed: 0.006545066833496094
ell 94, elapsed: 0.0006761550903320312
ell 93, elapsed: 0.0004918575286865234
ell 92, elapsed: 0.0007128715515136719
ell 91, elapsed: 0.0005600452423095703
ell 90, elapsed: 0.0006439685821533203
ell 89, elapsed: 0.0005068778991699219
ell 88, elapsed: 0.0006930828094482422
ell 87, elapsed: 0.0005040168762207031
ell 86, elapsed: 0.0008530616760253906
ell 85, elapsed: 0.00055694580078125
ell 84, elapsed: 0.0007309913635253906
ell 83, elapsed: 0.0004971027374267578
ell 82, elapsed: 0.0006527900695800781
ell 81, elapsed: 0.0005638599395751953
ell 80, elapsed: 0.0007150173187255859
ell 79, elapsed: 0.0005130767822265625
ell 78, elapsed: 0.0006830692291259766
ell 77, elapsed: 0.0004978179931640625
ell 76, elapsed: 0.0006420612335205078
ell 75, elapsed: 0.0005321502685546875
ell 74, elapsed: 0.0006921291351318359
ell 73, elapsed: 0.0005249977111816406
ell 72, elapsed: 0.0006890296936035156
ell 71, elapsed: 0.0005049705505371094
ell 70, elapsed: 0.0007197856903076172
ell 69, elapsed: 0.0025429725646972656
ell 68, elapsed: 0.0006999969482421875
ell 67, elapsed: 0.0005078315734863281
ell 66, elapsed: 0.000621795654296875
ell 65, elapsed: 0.0004968643188476562
ell 64, elapsed: 0.0006630420684814453
ell 63, elapsed: 0.0005021095275878906
ell 62, elapsed: 0.0006728172302246094
ell 61, elapsed: 0.0006029605865478516
ell 60, elapsed: 0.0006709098815917969
ell 59, elapsed: 0.0004868507385253906
ell 58, elapsed: 0.0006330013275146484
ell 57, elapsed: 0.0005249977111816406
ell 56, elapsed: 0.0006489753723144531
ell 55, elapsed: 0.0005269050598144531
ell 54, elapsed: 0.0006630420684814453
ell 53, elapsed: 0.0004849433898925781
ell 52, elapsed: 0.0007429122924804688
ell 51, elapsed: 0.0004589557647705078
ell 50, elapsed: 0.0006251335144042969
ell 49, elapsed: 0.0005080699920654297
ell 48, elapsed: 0.0006949901580810547
ell 47, elapsed: 0.0004780292510986328
ell 46, elapsed: 0.0006070137023925781
ell 45, elapsed: 0.0004930496215820312
ell 44, elapsed: 0.0006148815155029297
ell 43, elapsed: 0.0005359649658203125
ell 42, elapsed: 0.0006501674652099609
ell 41, elapsed: 0.0004761219024658203
ell 40, elapsed: 0.0006761550903320312
ell 39, elapsed: 0.0004990100860595703
ell 38, elapsed: 0.0006392002105712891
ell 37, elapsed: 0.0005578994750976562
ell 36, elapsed: 0.0007028579711914062
ell 35, elapsed: 0.0005228519439697266
ell 34, elapsed: 0.00067901611328125
ell 33, elapsed: 0.0005090236663818359
ell 32, elapsed: 0.0006899833679199219
ell 31, elapsed: 0.0006570816040039062
ell 30, elapsed: 0.0007989406585693359
ell 29, elapsed: 0.0005640983581542969
ell 28, elapsed: 0.0007960796356201172
ell 27, elapsed: 0.0005390644073486328
ell 26, elapsed: 0.0007610321044921875
ell 25, elapsed: 0.0005409717559814453
ell 24, elapsed: 0.0006930828094482422
ell 23, elapsed: 0.0005090236663818359
ell 22, elapsed: 0.0007059574127197266
ell 21, elapsed: 0.0005230903625488281
ell 20, elapsed: 0.0007150173187255859
ell 19, elapsed: 0.0004909038543701172
ell 18, elapsed: 0.0006859302520751953
ell 17, elapsed: 0.0004940032958984375
ell 16, elapsed: 0.0006740093231201172
ell 15, elapsed: 0.000476837158203125
ell 14, elapsed: 0.0007309913635253906
ell 13, elapsed: 0.0004990100860595703
ell 12, elapsed: 0.0007469654083251953
ell 11, elapsed: 0.0004971027374267578
ell 10, elapsed: 0.0006589889526367188
ell 9, elapsed: 0.0005598068237304688
ell 8, elapsed: 0.0006940364837646484
ell 7, elapsed: 0.0005431175231933594
ell 6, elapsed: 0.0007309913635253906
ell 5, elapsed: 0.0005278587341308594
ell 4, elapsed: 0.0008261203765869141
ell 3, elapsed: 0.0005280971527099609
ell 2, elapsed: 0.0006740093231201172
ell 1, elapsed: 0.00047898292541503906
ell 0, elapsed: 0.000637054443359375
  2.359403 seconds (1.75 M allocations: 87.270 MiB, 3.14% gc time)
elapsed: 0.0007679462432861328
step:          0.639418 sec (545.929 k allocations: 27.837 MB, 2.91% gc time)
swapping:      0.000758 sec (0 allocations: 0 byte, 0.0% gc time)
calc_Mellell!: 0.322763 sec (376.117 k allocations: 19.065 MB, 5.99% gc time)
  t0 :  0.0 sec (0 allocations: 0 byte, 0.0% gc time)
  tm2 : 0.0 sec (0 allocations: 0 byte, 0.0% gc time)
  tm2s: 0.0 sec (0 allocations: 0 byte, 0.0% gc time)
  tm4 : 0.0 sec (0 allocations: 0 byte, 0.0% gc time)
  tp2 : 0.0 sec (0 allocations: 0 byte, 0.0% gc time)
  tp2s: 0.0 sec (0 allocations: 0 byte, 0.0% gc time)
  tp4 : 0.0 sec (0 allocations: 0 byte, 0.0% gc time)
calc_wtdll!:   1.185467 sec (691.627 k allocations: 33.622 MB, 1.66% gc time)
calc_wljj!:    0.004165 sec (6 allocations: 96 byte, 0.0% gc time)
mult_prefac!:  0.0 sec (0 allocations: 0 byte, 0.0% gc time)
convert:       0.0 sec (0 allocations: 0 byte, 0.0% gc time)
write:         0.031992 sec (0 allocations: 0 byte, 0.0% gc time)
test_rand_2f1: 0.0 sec (0 allocations: 0 byte, 0.0% gc time)
Closing outfile out/Ml21-cache.bin...   0.000247 seconds
  0.981269 seconds (178.29 k allocations: 8.027 MiB)
make_phi():   0.011506 seconds (8.21 k allocations: 238.328 KiB)
  0.332550 seconds (151.77 k allocations: 7.497 MiB)
tskip:       2.1e-5 sec (0 allocations: 0 byte, 0.0% gc time)
tread:       0.002916 sec (10 allocations: 1.75 KB, 0.0% gc time)
tmultphi:    0.045023 sec (22.116 k allocations: 1.108 MB, 0.0% gc time)
tbrfft:      0.004099 sec (896 allocations: 42.0 KB, 0.0% gc time)
tmultprefac: 0.001781 sec (0 allocations: 0 byte, 0.0% gc time)
toutfunc:    0.278631 sec (128.087 k allocations: 6.276 MB, 0.0% gc time)
Testing R=1.1 ... passed
Calculating fmax: 
  dlrec    = 4
  dlrecRg1 = -4
  q=1.1, R=1.0:	  0.032607 seconds (12.31 k allocations: 3.733 MiB, 81.97% gc time)

  0.034399 seconds (12.36 k allocations: 3.765 MiB, 77.70% gc time)
ℓ = 1202
Δℓ = 4
ΔℓRg1 = -4
N = 1600
q = 1.1
kmin = 1.0e-5
kmax = 100000.00000000004
χ0 = 0.023029999999999995
RR = RR.tsv
ℓmax = ℓmax.bin
f21 = f21.bin
kmin = 1.0e-5
kmax = 100000.0
dlrec    = 4
dlrecRg1 = -4
Output size: 61465536 bytes = 0.05724424123764038 GiB
Output size: 51264 bytes = 4.774332046508789e-5 GiB
Reading 'out/F21EllCache'...   0.001239 seconds (348 allocations: 85.719 KiB)
ellmax: 1202
lmaxcache: 1202
fell[:,1,1] = Complex{Float64}[809.603-1.98296e-13im, 0.0+0.0im]
ell 1202, elapsed: 2.5987625122070312e-5
ell 1201, elapsed: 0.027711153030395508
ell 1200, elapsed: 0.00027108192443847656
ell 1199, elapsed: 0.0002689361572265625
ell 1198, elapsed: 0.00026607513427734375
ell 1197, elapsed: 0.00032591819763183594
ell 1196, elapsed: 0.0003020763397216797
ell 1195, elapsed: 0.00917816162109375
ell 1194, elapsed: 0.0003178119659423828
ell 1193, elapsed: 0.00042700767517089844
ell 1192, elapsed: 0.0002968311309814453
ell 1191, elapsed: 0.0004680156707763672
ell 1190, elapsed: 0.00030994415283203125
ell 1189, elapsed: 0.0004639625549316406
ell 1188, elapsed: 0.0002989768981933594
ell 1187, elapsed: 0.0004038810729980469
ell 1186, elapsed: 0.0003390312194824219
ell 1185, elapsed: 0.00043487548828125
ell 1184, elapsed: 0.00030112266540527344
ell 1183, elapsed: 0.0004508495330810547
ell 1182, elapsed: 0.0003151893615722656
ell 1181, elapsed: 0.0004410743713378906
ell 1180, elapsed: 0.00029397010803222656
ell 1179, elapsed: 0.00041794776916503906
ell 1178, elapsed: 0.0002980232238769531
ell 1177, elapsed: 0.0005941390991210938
ell 1176, elapsed: 0.0003058910369873047
ell 1175, elapsed: 0.00041985511779785156
ell 1174, elapsed: 0.00030112266540527344
ell 1173, elapsed: 0.0004780292510986328
ell 1172, elapsed: 0.0003008842468261719
ell 1171, elapsed: 0.0004448890686035156
ell 1170, elapsed: 0.0002989768981933594
ell 1169, elapsed: 0.0005621910095214844
ell 1168, elapsed: 0.0003879070281982422
ell 1167, elapsed: 0.0005609989166259766
ell 1166, elapsed: 0.00031495094299316406
ell 1165, elapsed: 0.0005071163177490234
ell 1164, elapsed: 0.0003218650817871094
ell 1163, elapsed: 0.0004470348358154297
ell 1162, elapsed: 0.00030303001403808594
ell 1161, elapsed: 0.0006301403045654297
ell 1160, elapsed: 0.0003559589385986328
ell 1159, elapsed: 0.00044608116149902344
ell 1158, elapsed: 0.0002930164337158203
ell 1157, elapsed: 0.00045299530029296875
ell 1156, elapsed: 0.00030303001403808594
ell 1155, elapsed: 0.0004639625549316406
ell 1154, elapsed: 0.0002980232238769531
ell 1153, elapsed: 0.0004229545593261719
ell 1152, elapsed: 0.00047397613525390625
ell 1151, elapsed: 0.0006260871887207031
ell 1150, elapsed: 0.00035309791564941406
ell 1149, elapsed: 0.0004420280456542969
ell 1148, elapsed: 0.0002880096435546875
ell 1147, elapsed: 0.0004208087921142578
ell 1146, elapsed: 0.00029015541076660156
ell 1145, elapsed: 0.0004138946533203125
ell 1144, elapsed: 0.000392913818359375
ell 1143, elapsed: 0.000431060791015625
ell 1142, elapsed: 0.0003027915954589844
ell 1141, elapsed: 0.0004341602325439453
ell 1140, elapsed: 0.0002999305725097656
ell 1139, elapsed: 0.00041985511779785156
ell 1138, elapsed: 0.00029778480529785156
ell 1137, elapsed: 0.00042891502380371094
ell 1136, elapsed: 0.0002970695495605469
ell 1135, elapsed: 0.0005948543548583984
ell 1134, elapsed: 0.0003349781036376953
ell 1133, elapsed: 0.0006139278411865234
ell 1132, elapsed: 0.00032711029052734375
ell 1131, elapsed: 0.00042510032653808594
ell 1130, elapsed: 0.0003159046173095703
ell 1129, elapsed: 0.0004048347473144531
ell 1128, elapsed: 0.00029587745666503906
ell 1127, elapsed: 0.000392913818359375
ell 1126, elapsed: 0.0002951622009277344
ell 1125, elapsed: 0.00041103363037109375
ell 1124, elapsed: 0.0002949237823486328
ell 1123, elapsed: 0.00043201446533203125
ell 1122, elapsed: 0.0002930164337158203
ell 1121, elapsed: 0.0004730224609375
ell 1120, elapsed: 0.0002961158752441406
ell 1119, elapsed: 0.0004279613494873047
ell 1118, elapsed: 0.0002930164337158203
ell 1117, elapsed: 0.0007231235504150391
ell 1116, elapsed: 0.00033593177795410156
ell 1115, elapsed: 0.0004451274871826172
ell 1114, elapsed: 0.0003027915954589844
ell 1113, elapsed: 0.00045299530029296875
ell 1112, elapsed: 0.0003058910369873047
ell 1111, elapsed: 0.0004999637603759766
ell 1110, elapsed: 0.00030803680419921875
ell 1109, elapsed: 0.00067901611328125
ell 1108, elapsed: 0.0004119873046875
ell 1107, elapsed: 0.0004889965057373047
ell 1106, elapsed: 0.0003178119659423828
ell 1105, elapsed: 0.0004220008850097656
ell 1104, elapsed: 0.0002949237823486328
ell 1103, elapsed: 0.00043082237243652344
ell 1102, elapsed: 0.00029397010803222656
ell 1101, elapsed: 0.0005800724029541016
ell 1100, elapsed: 0.00030612945556640625
ell 1099, elapsed: 0.0004131793975830078
ell 1098, elapsed: 0.0002968311309814453
ell 1097, elapsed: 0.00043487548828125
ell 1096, elapsed: 0.00029587745666503906
ell 1095, elapsed: 0.0004360675811767578
ell 1094, elapsed: 0.0003120899200439453
ell 1093, elapsed: 0.0004639625549316406
ell 1092, elapsed: 0.0004780292510986328
ell 1091, elapsed: 0.0004680156707763672
ell 1090, elapsed: 0.0003108978271484375
ell 1089, elapsed: 0.0004611015319824219
ell 1088, elapsed: 0.0003330707550048828
ell 1087, elapsed: 0.0005040168762207031
ell 1086, elapsed: 0.0003330707550048828
ell 1085, elapsed: 0.0004971027374267578
ell 1084, elapsed: 0.0004718303680419922
ell 1083, elapsed: 0.0005269050598144531
ell 1082, elapsed: 0.0003170967102050781
ell 1081, elapsed: 0.00045990943908691406
ell 1080, elapsed: 0.0003178119659423828
ell 1079, elapsed: 0.0005059242248535156
ell 1078, elapsed: 0.00032782554626464844
ell 1077, elapsed: 0.00045800209045410156
ell 1076, elapsed: 0.0005497932434082031
ell 1075, elapsed: 0.0004889965057373047
ell 1074, elapsed: 0.00031185150146484375
ell 1073, elapsed: 0.00048804283142089844
ell 1072, elapsed: 0.000331878662109375
ell 1071, elapsed: 0.0005161762237548828
ell 1070, elapsed: 0.0003170967102050781
ell 1069, elapsed: 0.0004940032958984375
ell 1068, elapsed: 0.00033283233642578125
ell 1067, elapsed: 0.0004899501800537109
ell 1066, elapsed: 0.0003249645233154297
ell 1065, elapsed: 0.00047087669372558594
ell 1064, elapsed: 0.0003228187561035156
ell 1063, elapsed: 0.0004639625549316406
ell 1062, elapsed: 0.0003159046173095703
ell 1061, elapsed: 0.000476837158203125
ell 1060, elapsed: 0.0004508495330810547
ell 1059, elapsed: 0.00049591064453125
ell 1058, elapsed: 0.0003190040588378906
ell 1057, elapsed: 0.0004918575286865234
ell 1056, elapsed: 0.0003299713134765625
ell 1055, elapsed: 0.0004940032958984375
ell 1054, elapsed: 0.0003459453582763672
ell 1053, elapsed: 0.0005061626434326172
ell 1052, elapsed: 0.00046706199645996094
ell 1051, elapsed: 0.0004699230194091797
ell 1050, elapsed: 0.0003120899200439453
ell 1049, elapsed: 0.0004360675811767578
ell 1048, elapsed: 0.0003108978271484375
ell 1047, elapsed: 0.00044918060302734375
ell 1046, elapsed: 0.0003159046173095703
ell 1045, elapsed: 0.0004780292510986328
ell 1044, elapsed: 0.00046515464782714844
ell 1043, elapsed: 0.00045490264892578125
ell 1042, elapsed: 0.0003180503845214844
ell 1041, elapsed: 0.0004792213439941406
ell 1040, elapsed: 0.0003190040588378906
ell 1039, elapsed: 0.0005140304565429688
ell 1038, elapsed: 0.00032210350036621094
ell 1037, elapsed: 0.00045800209045410156
ell 1036, elapsed: 0.00044798851013183594
ell 1035, elapsed: 0.0004589557647705078
ell 1034, elapsed: 0.0003108978271484375
ell 1033, elapsed: 0.00043010711669921875
ell 1032, elapsed: 0.00031185150146484375
ell 1031, elapsed: 0.00045299530029296875
ell 1030, elapsed: 0.0003330707550048828
ell 1029, elapsed: 0.00047707557678222656
ell 1028, elapsed: 0.0003180503845214844
ell 1027, elapsed: 0.0005881786346435547
ell 1026, elapsed: 0.00032401084899902344
ell 1025, elapsed: 0.00045990943908691406
ell 1024, elapsed: 0.00030303001403808594
ell 1023, elapsed: 0.00043392181396484375
ell 1022, elapsed: 0.00030493736267089844
ell 1021, elapsed: 0.0004489421844482422
ell 1020, elapsed: 0.00032401084899902344
ell 1019, elapsed: 0.0006000995635986328
ell 1018, elapsed: 0.0003159046173095703
ell 1017, elapsed: 0.0004940032958984375
ell 1016, elapsed: 0.000308990478515625
ell 1015, elapsed: 0.00041294097900390625
ell 1014, elapsed: 0.0003020763397216797
ell 1013, elapsed: 0.0004680156707763672
ell 1012, elapsed: 0.0003139972686767578
ell 1011, elapsed: 0.0004870891571044922
ell 1010, elapsed: 0.0003209114074707031
ell 1009, elapsed: 0.0004401206970214844
ell 1008, elapsed: 0.0003161430358886719
ell 1007, elapsed: 0.00045609474182128906
ell 1006, elapsed: 0.00030612945556640625
ell 1005, elapsed: 0.0004820823669433594
ell 1004, elapsed: 0.000308990478515625
ell 1003, elapsed: 0.00043201446533203125
ell 1002, elapsed: 0.0004291534423828125
ell 1001, elapsed: 0.0005040168762207031
ell 1000, elapsed: 0.0003120899200439453
ell 999, elapsed: 0.0004429817199707031
ell 998, elapsed: 0.00030112266540527344
ell 997, elapsed: 0.0004990100860595703
ell 996, elapsed: 0.0003199577331542969
ell 995, elapsed: 0.0004749298095703125
ell 994, elapsed: 0.000308990478515625
ell 993, elapsed: 0.000576019287109375
ell 992, elapsed: 0.00032591819763183594
ell 991, elapsed: 0.0004448890686035156
ell 990, elapsed: 0.0003039836883544922
ell 989, elapsed: 0.0004341602325439453
ell 988, elapsed: 0.0003120899200439453
ell 987, elapsed: 0.0004639625549316406
ell 986, elapsed: 0.0003209114074707031
ell 985, elapsed: 0.0006041526794433594
ell 984, elapsed: 0.00031495094299316406
ell 983, elapsed: 0.00044417381286621094
ell 982, elapsed: 0.00030994415283203125
ell 981, elapsed: 0.00043201446533203125
ell 980, elapsed: 0.0003190040588378906
ell 979, elapsed: 0.0004661083221435547
ell 978, elapsed: 0.0003190040588378906
ell 977, elapsed: 0.0005931854248046875
ell 976, elapsed: 0.0003669261932373047
ell 975, elapsed: 0.0005030632019042969
ell 974, elapsed: 0.00034308433532714844
ell 973, elapsed: 0.00045013427734375
ell 972, elapsed: 0.000308990478515625
ell 971, elapsed: 0.00043392181396484375
ell 970, elapsed: 0.000308990478515625
ell 969, elapsed: 0.0004718303680419922
ell 968, elapsed: 0.0003070831298828125
ell 967, elapsed: 0.0004279613494873047
ell 966, elapsed: 0.0003058910369873047
ell 965, elapsed: 0.00043511390686035156
ell 964, elapsed: 0.0003120899200439453
ell 963, elapsed: 0.0004420280456542969
ell 962, elapsed: 0.0003139972686767578
ell 961, elapsed: 0.0004410743713378906
ell 960, elapsed: 0.0004649162292480469
ell 959, elapsed: 0.00046896934509277344
ell 958, elapsed: 0.0003020763397216797
ell 957, elapsed: 0.0004420280456542969
ell 956, elapsed: 0.0003001689910888672
ell 955, elapsed: 0.0004420280456542969
ell 954, elapsed: 0.00031495094299316406
ell 953, elapsed: 0.00043511390686035156
ell 952, elapsed: 0.0002999305725097656
ell 951, elapsed: 0.0006070137023925781
ell 950, elapsed: 0.00031304359436035156
ell 949, elapsed: 0.0004799365997314453
ell 948, elapsed: 0.0003209114074707031
ell 947, elapsed: 0.0004470348358154297
ell 946, elapsed: 0.00031304359436035156
ell 945, elapsed: 0.00045609474182128906
ell 944, elapsed: 0.0003209114074707031
ell 943, elapsed: 0.0006880760192871094
ell 942, elapsed: 0.0003600120544433594
ell 941, elapsed: 0.0004839897155761719
ell 940, elapsed: 0.00030112266540527344
ell 939, elapsed: 0.0004520416259765625
ell 938, elapsed: 0.0003039836883544922
ell 937, elapsed: 0.0004749298095703125
ell 936, elapsed: 0.0003108978271484375
ell 935, elapsed: 0.0005710124969482422
ell 934, elapsed: 0.00031185150146484375
ell 933, elapsed: 0.00043010711669921875
ell 932, elapsed: 0.0003409385681152344
ell 931, elapsed: 0.0004558563232421875
ell 930, elapsed: 0.0003249645233154297
ell 929, elapsed: 0.00044608116149902344
ell 928, elapsed: 0.0003161430358886719
ell 927, elapsed: 0.0004398822784423828
ell 926, elapsed: 0.0004639625549316406
ell 925, elapsed: 0.0005440711975097656
ell 924, elapsed: 0.00034117698669433594
ell 923, elapsed: 0.0004291534423828125
ell 922, elapsed: 0.00032401084899902344
ell 921, elapsed: 0.00043511390686035156
ell 920, elapsed: 0.0003108978271484375
ell 919, elapsed: 0.0004398822784423828
ell 918, elapsed: 0.0004169940948486328
ell 917, elapsed: 0.00042700767517089844
ell 916, elapsed: 0.0003199577331542969
ell 915, elapsed: 0.0004620552062988281
ell 914, elapsed: 0.0003190040588378906
ell 913, elapsed: 0.00044083595275878906
ell 912, elapsed: 0.00030493736267089844
ell 911, elapsed: 0.000492095947265625
ell 910, elapsed: 0.00030803680419921875
ell 909, elapsed: 0.0005550384521484375
ell 908, elapsed: 0.0003249645233154297
ell 907, elapsed: 0.0004210472106933594
ell 906, elapsed: 0.00030612945556640625
ell 905, elapsed: 0.00043082237243652344
ell 904, elapsed: 0.0002968311309814453
ell 903, elapsed: 0.00042319297790527344
ell 902, elapsed: 0.00030612945556640625
ell 901, elapsed: 0.0004878044128417969
ell 900, elapsed: 0.0003020763397216797
ell 899, elapsed: 0.0005440711975097656
ell 898, elapsed: 0.0003800392150878906
ell 897, elapsed: 0.000518798828125
ell 896, elapsed: 0.00037097930908203125
ell 895, elapsed: 0.0005211830139160156
ell 894, elapsed: 0.0003559589385986328
ell 893, elapsed: 0.0007719993591308594
ell 892, elapsed: 0.00045013427734375
ell 891, elapsed: 0.0006201267242431641
ell 890, elapsed: 0.0003509521484375
ell 889, elapsed: 0.0005078315734863281
ell 888, elapsed: 0.00035691261291503906
ell 887, elapsed: 0.0009679794311523438
ell 886, elapsed: 0.00030994415283203125
ell 885, elapsed: 0.0004470348358154297
ell 884, elapsed: 0.00031304359436035156
ell 883, elapsed: 0.0004620552062988281
ell 882, elapsed: 0.0003161430358886719
ell 881, elapsed: 0.0004899501800537109
ell 880, elapsed: 0.0003180503845214844
ell 879, elapsed: 0.0004990100860595703
ell 878, elapsed: 0.0003209114074707031
ell 877, elapsed: 0.0005779266357421875
ell 876, elapsed: 0.0003459453582763672
ell 875, elapsed: 0.0005071163177490234
ell 874, elapsed: 0.0003349781036376953
ell 873, elapsed: 0.0005171298980712891
ell 872, elapsed: 0.00034499168395996094
ell 871, elapsed: 0.0005550384521484375
ell 870, elapsed: 0.0003108978271484375
ell 869, elapsed: 0.0004470348358154297
ell 868, elapsed: 0.0003178119659423828
ell 867, elapsed: 0.00043892860412597656
ell 866, elapsed: 0.00030112266540527344
ell 865, elapsed: 0.000431060791015625
ell 864, elapsed: 0.0003159046173095703
ell 863, elapsed: 0.00045990943908691406
ell 862, elapsed: 0.00033211708068847656
ell 861, elapsed: 0.0005190372467041016
ell 860, elapsed: 0.0003190040588378906
ell 859, elapsed: 0.0004551410675048828
ell 858, elapsed: 0.0003108978271484375
ell 857, elapsed: 0.0004398822784423828
ell 856, elapsed: 0.00030493736267089844
ell 855, elapsed: 0.0004248619079589844
ell 854, elapsed: 0.0003020763397216797
ell 853, elapsed: 0.0004990100860595703
ell 852, elapsed: 0.0003018379211425781
ell 851, elapsed: 0.000431060791015625
ell 850, elapsed: 0.0003001689910888672
ell 849, elapsed: 0.0004401206970214844
ell 848, elapsed: 0.0003170967102050781
ell 847, elapsed: 0.0004260540008544922
ell 846, elapsed: 0.0003101825714111328
ell 845, elapsed: 0.0004382133483886719
ell 844, elapsed: 0.00034809112548828125
ell 843, elapsed: 0.00043702125549316406
ell 842, elapsed: 0.00031495094299316406
ell 841, elapsed: 0.0004208087921142578
ell 840, elapsed: 0.0002989768981933594
ell 839, elapsed: 0.00043201446533203125
ell 838, elapsed: 0.0003020763397216797
ell 837, elapsed: 0.0004189014434814453
ell 836, elapsed: 0.0003120899200439453
ell 835, elapsed: 0.0005071163177490234
ell 834, elapsed: 0.00032711029052734375
ell 833, elapsed: 0.00045490264892578125
ell 832, elapsed: 0.00030994415283203125
ell 831, elapsed: 0.0004417896270751953
ell 830, elapsed: 0.0003139972686767578
ell 829, elapsed: 0.0004630088806152344
ell 828, elapsed: 0.0003018379211425781
ell 827, elapsed: 0.00043392181396484375
ell 826, elapsed: 0.0003170967102050781
ell 825, elapsed: 0.00041604042053222656
ell 824, elapsed: 0.0003039836883544922
ell 823, elapsed: 0.0004968643188476562
ell 822, elapsed: 0.0003001689910888672
ell 821, elapsed: 0.0004329681396484375
ell 820, elapsed: 0.0003039836883544922
ell 819, elapsed: 0.0004451274871826172
ell 818, elapsed: 0.0003020763397216797
ell 817, elapsed: 0.00045299530029296875
ell 816, elapsed: 0.0003120899200439453
ell 815, elapsed: 0.0004410743713378906
ell 814, elapsed: 0.00030303001403808594
ell 813, elapsed: 0.0004420280456542969
ell 812, elapsed: 0.0003018379211425781
ell 811, elapsed: 0.0004382133483886719
ell 810, elapsed: 0.0003077983856201172
ell 809, elapsed: 0.0004858970642089844
ell 808, elapsed: 0.0003218650817871094
ell 807, elapsed: 0.00044798851013183594
ell 806, elapsed: 0.00030612945556640625
ell 805, elapsed: 0.00045013427734375
ell 804, elapsed: 0.0003018379211425781
ell 803, elapsed: 0.0004379749298095703
ell 802, elapsed: 0.0002949237823486328
ell 801, elapsed: 0.0004200935363769531
ell 800, elapsed: 0.0002970695495605469
ell 799, elapsed: 0.00045800209045410156
ell 798, elapsed: 0.0002970695495605469
ell 797, elapsed: 0.0004050731658935547
ell 796, elapsed: 0.0002880096435546875
ell 795, elapsed: 0.0004210472106933594
ell 794, elapsed: 0.00029921531677246094
ell 793, elapsed: 0.000431060791015625
ell 792, elapsed: 0.00029397010803222656
ell 791, elapsed: 0.0004050731658935547
ell 790, elapsed: 0.0003330707550048828
ell 789, elapsed: 0.0004401206970214844
ell 788, elapsed: 0.0003070831298828125
ell 787, elapsed: 0.00042510032653808594
ell 786, elapsed: 0.0002949237823486328
ell 785, elapsed: 0.00042510032653808594
ell 784, elapsed: 0.00029277801513671875
ell 783, elapsed: 0.00043892860412597656
ell 782, elapsed: 0.00030303001403808594
ell 781, elapsed: 0.0004899501800537109
ell 780, elapsed: 0.0002980232238769531
ell 779, elapsed: 0.00043392181396484375
ell 778, elapsed: 0.0003020763397216797
ell 777, elapsed: 0.00044608116149902344
ell 776, elapsed: 0.0002951622009277344
ell 775, elapsed: 0.0004241466522216797
ell 774, elapsed: 0.0002942085266113281
ell 773, elapsed: 0.0004248619079589844
ell 772, elapsed: 0.0003960132598876953
ell 771, elapsed: 0.0004260540008544922
ell 770, elapsed: 0.0002918243408203125
ell 769, elapsed: 0.0004150867462158203
ell 768, elapsed: 0.0002880096435546875
ell 767, elapsed: 0.0004088878631591797
ell 766, elapsed: 0.00028705596923828125
ell 765, elapsed: 0.00042510032653808594
ell 764, elapsed: 0.0002999305725097656
ell 763, elapsed: 0.00043892860412597656
ell 762, elapsed: 0.0002970695495605469
ell 761, elapsed: 0.0004210472106933594
ell 760, elapsed: 0.0002942085266113281
ell 759, elapsed: 0.0004467964172363281
ell 758, elapsed: 0.00030994415283203125
ell 757, elapsed: 0.00043392181396484375
ell 756, elapsed: 0.0003018379211425781
ell 755, elapsed: 0.0004210472106933594
ell 754, elapsed: 0.0003070831298828125
ell 753, elapsed: 0.0005359649658203125
ell 752, elapsed: 0.00032806396484375
ell 751, elapsed: 0.0004520416259765625
ell 750, elapsed: 0.0003077983856201172
ell 749, elapsed: 0.0004639625549316406
ell 748, elapsed: 0.0003008842468261719
ell 747, elapsed: 0.0004241466522216797
ell 746, elapsed: 0.0003039836883544922
ell 745, elapsed: 0.000453948974609375
ell 744, elapsed: 0.0002999305725097656
ell 743, elapsed: 0.0004360675811767578
ell 742, elapsed: 0.0002949237823486328
ell 741, elapsed: 0.00041294097900390625
ell 740, elapsed: 0.0003008842468261719
ell 739, elapsed: 0.00042891502380371094
ell 738, elapsed: 0.0002949237823486328
ell 737, elapsed: 0.00041794776916503906
ell 736, elapsed: 0.0002970695495605469
ell 735, elapsed: 0.0004630088806152344
ell 734, elapsed: 0.0002951622009277344
ell 733, elapsed: 0.0004401206970214844
ell 732, elapsed: 0.0003039836883544922
ell 731, elapsed: 0.0004169940948486328
ell 730, elapsed: 0.0002949237823486328
ell 729, elapsed: 0.0004181861877441406
ell 728, elapsed: 0.0003027915954589844
ell 727, elapsed: 0.00042891502380371094
ell 726, elapsed: 0.00035691261291503906
ell 725, elapsed: 0.00045990943908691406
ell 724, elapsed: 0.0002999305725097656
ell 723, elapsed: 0.0004360675811767578
ell 722, elapsed: 0.0002999305725097656
ell 721, elapsed: 0.000453948974609375
ell 720, elapsed: 0.000308990478515625
ell 719, elapsed: 0.00045418739318847656
ell 718, elapsed: 0.00032901763916015625
ell 717, elapsed: 0.0004940032958984375
ell 716, elapsed: 0.0003039836883544922
ell 715, elapsed: 0.0004398822784423828
ell 714, elapsed: 0.0003070831298828125
ell 713, elapsed: 0.00044798851013183594
ell 712, elapsed: 0.00030684471130371094
ell 711, elapsed: 0.00044798851013183594
ell 710, elapsed: 0.00030303001403808594
ell 709, elapsed: 0.0004379749298095703
ell 708, elapsed: 0.00034499168395996094
ell 707, elapsed: 0.00043511390686035156
ell 706, elapsed: 0.00029206275939941406
ell 705, elapsed: 0.0004220008850097656
ell 704, elapsed: 0.0003001689910888672
ell 703, elapsed: 0.00043892860412597656
ell 702, elapsed: 0.0003070831298828125
ell 701, elapsed: 0.00041413307189941406
ell 700, elapsed: 0.0002918243408203125
ell 699, elapsed: 0.0004930496215820312
ell 698, elapsed: 0.0002951622009277344
ell 697, elapsed: 0.0004189014434814453
ell 696, elapsed: 0.00029587745666503906
ell 695, elapsed: 0.0004150867462158203
ell 694, elapsed: 0.00030517578125
ell 693, elapsed: 0.0004391670227050781
ell 692, elapsed: 0.00029397010803222656
ell 691, elapsed: 0.0004069805145263672
ell 690, elapsed: 0.00032806396484375
ell 689, elapsed: 0.00041794776916503906
ell 688, elapsed: 0.0002951622009277344
ell 687, elapsed: 0.00047707557678222656
ell 686, elapsed: 0.00031304359436035156
ell 685, elapsed: 0.0004382133483886719
ell 684, elapsed: 0.00030803680419921875
ell 683, elapsed: 0.0004570484161376953
ell 682, elapsed: 0.00030517578125
ell 681, elapsed: 0.0005071163177490234
ell 680, elapsed: 0.0003180503845214844
ell 679, elapsed: 0.0004639625549316406
ell 678, elapsed: 0.00031185150146484375
ell 677, elapsed: 0.00047397613525390625
ell 676, elapsed: 0.00032591819763183594
ell 675, elapsed: 0.0005011558532714844
ell 674, elapsed: 0.00033020973205566406
ell 673, elapsed: 0.0005528926849365234
ell 672, elapsed: 0.0003139972686767578
ell 671, elapsed: 0.0005021095275878906
ell 670, elapsed: 0.00033211708068847656
ell 669, elapsed: 0.0004630088806152344
ell 668, elapsed: 0.0003070831298828125
ell 667, elapsed: 0.0004711151123046875
ell 666, elapsed: 0.0003249645233154297
ell 665, elapsed: 0.0004630088806152344
ell 664, elapsed: 0.0003418922424316406
ell 663, elapsed: 0.00047397613525390625
ell 662, elapsed: 0.0003199577331542969
ell 661, elapsed: 0.0004858970642089844
ell 660, elapsed: 0.0003159046173095703
ell 659, elapsed: 0.0004661083221435547
ell 658, elapsed: 0.00032711029052734375
ell 657, elapsed: 0.00047397613525390625
ell 656, elapsed: 0.0003039836883544922
ell 655, elapsed: 0.0005438327789306641
ell 654, elapsed: 0.00030517578125
ell 653, elapsed: 0.00042700767517089844
ell 652, elapsed: 0.0002980232238769531
ell 651, elapsed: 0.0004150867462158203
ell 650, elapsed: 0.0003039836883544922
ell 649, elapsed: 0.00043511390686035156
ell 648, elapsed: 0.0002989768981933594
ell 647, elapsed: 0.0004439353942871094
ell 646, elapsed: 0.00030994415283203125
ell 645, elapsed: 0.0004298686981201172
ell 644, elapsed: 0.00029206275939941406
ell 643, elapsed: 0.0004470348358154297
ell 642, elapsed: 0.0002930164337158203
ell 641, elapsed: 0.00043392181396484375
ell 640, elapsed: 0.0002980232238769531
ell 639, elapsed: 0.00040912628173828125
ell 638, elapsed: 0.0002980232238769531
ell 637, elapsed: 0.0004730224609375
ell 636, elapsed: 0.0002989768981933594
ell 635, elapsed: 0.0004189014434814453
ell 634, elapsed: 0.0003008842468261719
ell 633, elapsed: 0.00042510032653808594
ell 632, elapsed: 0.0002980232238769531
ell 631, elapsed: 0.00041294097900390625
ell 630, elapsed: 0.00029087066650390625
ell 629, elapsed: 0.00040912628173828125
ell 628, elapsed: 0.002457141876220703
ell 627, elapsed: 0.0004649162292480469
ell 626, elapsed: 0.0002970695495605469
ell 625, elapsed: 0.0004470348358154297
ell 624, elapsed: 0.0003688335418701172
ell 623, elapsed: 0.0004429817199707031
ell 622, elapsed: 0.0002989768981933594
ell 621, elapsed: 0.00041484832763671875
ell 620, elapsed: 0.00029397010803222656
ell 619, elapsed: 0.00044417381286621094
ell 618, elapsed: 0.0002980232238769531
ell 617, elapsed: 0.00042891502380371094
ell 616, elapsed: 0.0002980232238769531
ell 615, elapsed: 0.0005848407745361328
ell 614, elapsed: 0.0002999305725097656
ell 613, elapsed: 0.00043201446533203125
ell 612, elapsed: 0.0002911090850830078
ell 611, elapsed: 0.0004119873046875
ell 610, elapsed: 0.0002980232238769531
ell 609, elapsed: 0.00042891502380371094
ell 608, elapsed: 0.0002999305725097656
ell 607, elapsed: 0.0004210472106933594
ell 606, elapsed: 0.00041604042053222656
ell 605, elapsed: 0.0004258155822753906
ell 604, elapsed: 0.00029587745666503906
ell 603, elapsed: 0.0004279613494873047
ell 602, elapsed: 0.0002911090850830078
ell 601, elapsed: 0.00041484832763671875
ell 600, elapsed: 0.0003020763397216797
ell 599, elapsed: 0.00040912628173828125
ell 598, elapsed: 0.00029206275939941406
ell 597, elapsed: 0.0005309581756591797
ell 596, elapsed: 0.00030112266540527344
ell 595, elapsed: 0.0004200935363769531
ell 594, elapsed: 0.0002989768981933594
ell 593, elapsed: 0.00043010711669921875
ell 592, elapsed: 0.0002980232238769531
ell 591, elapsed: 0.0005211830139160156
ell 590, elapsed: 0.00029397010803222656
ell 589, elapsed: 0.00041294097900390625
ell 588, elapsed: 0.0003190040588378906
ell 587, elapsed: 0.00042700767517089844
ell 586, elapsed: 0.0002899169921875
ell 585, elapsed: 0.0004088878631591797
ell 584, elapsed: 0.0002880096435546875
ell 583, elapsed: 0.0004258155822753906
ell 582, elapsed: 0.0002949237823486328
ell 581, elapsed: 0.0004138946533203125
ell 580, elapsed: 0.0002899169921875
ell 579, elapsed: 0.00041604042053222656
ell 578, elapsed: 0.0004100799560546875
ell 577, elapsed: 0.00041794776916503906
ell 576, elapsed: 0.0002930164337158203
ell 575, elapsed: 0.0004010200500488281
ell 574, elapsed: 0.0002899169921875
ell 573, elapsed: 0.0004229545593261719
ell 572, elapsed: 0.00028705596923828125
ell 571, elapsed: 0.00040984153747558594
ell 570, elapsed: 0.0003001689910888672
ell 569, elapsed: 0.0005638599395751953
ell 568, elapsed: 0.0002911090850830078
ell 567, elapsed: 0.0004069805145263672
ell 566, elapsed: 0.0002961158752441406
ell 565, elapsed: 0.0003991127014160156
ell 564, elapsed: 0.000286102294921875
ell 563, elapsed: 0.0004169940948486328
ell 562, elapsed: 0.0002880096435546875
ell 561, elapsed: 0.0003960132598876953
ell 560, elapsed: 0.0004019737243652344
ell 559, elapsed: 0.00041794776916503906
ell 558, elapsed: 0.0002930164337158203
ell 557, elapsed: 0.0004241466522216797
ell 556, elapsed: 0.0002911090850830078
ell 555, elapsed: 0.0003941059112548828
ell 554, elapsed: 0.0002999305725097656
ell 553, elapsed: 0.00041413307189941406
ell 552, elapsed: 0.00030493736267089844
ell 551, elapsed: 0.0005190372467041016
ell 550, elapsed: 0.00028896331787109375
ell 549, elapsed: 0.00041604042053222656
ell 548, elapsed: 0.0003490447998046875
ell 547, elapsed: 0.00042700767517089844
ell 546, elapsed: 0.0003020763397216797
ell 545, elapsed: 0.0004150867462158203
ell 544, elapsed: 0.0003018379211425781
ell 543, elapsed: 0.0004620552062988281
ell 542, elapsed: 0.0003650188446044922
ell 541, elapsed: 0.0004889965057373047
ell 540, elapsed: 0.000331878662109375
ell 539, elapsed: 0.00048613548278808594
ell 538, elapsed: 0.0003190040588378906
ell 537, elapsed: 0.00045990943908691406
ell 536, elapsed: 0.0003108978271484375
ell 535, elapsed: 0.0004458427429199219
ell 534, elapsed: 0.0003368854522705078
ell 533, elapsed: 0.0004639625549316406
ell 532, elapsed: 0.00031495094299316406
ell 531, elapsed: 0.0004470348358154297
ell 530, elapsed: 0.00031495094299316406
ell 529, elapsed: 0.0004570484161376953
ell 528, elapsed: 0.0003180503845214844
ell 527, elapsed: 0.00043201446533203125
ell 526, elapsed: 0.00030803680419921875
ell 525, elapsed: 0.00045800209045410156
ell 524, elapsed: 0.00033092498779296875
ell 523, elapsed: 0.0004901885986328125
ell 522, elapsed: 0.00030803680419921875
ell 521, elapsed: 0.00046896934509277344
ell 520, elapsed: 0.00030803680419921875
ell 519, elapsed: 0.00043892860412597656
ell 518, elapsed: 0.0003039836883544922
ell 517, elapsed: 0.0004439353942871094
ell 516, elapsed: 0.0003299713134765625
ell 515, elapsed: 0.0004551410675048828
ell 514, elapsed: 0.0003039836883544922
ell 513, elapsed: 0.0004839897155761719
ell 512, elapsed: 0.00033092498779296875
ell 511, elapsed: 0.00047206878662109375
ell 510, elapsed: 0.0003120899200439453
ell 509, elapsed: 0.0004260540008544922
ell 508, elapsed: 0.00035190582275390625
ell 507, elapsed: 0.00048804283142089844
ell 506, elapsed: 0.000308990478515625
ell 505, elapsed: 0.0004799365997314453
ell 504, elapsed: 0.00031113624572753906
ell 503, elapsed: 0.0004448890686035156
ell 502, elapsed: 0.0003299713134765625
ell 501, elapsed: 0.00043010711669921875
ell 500, elapsed: 0.0003120899200439453
ell 499, elapsed: 0.00047206878662109375
ell 498, elapsed: 0.00031304359436035156
ell 497, elapsed: 0.0004858970642089844
ell 496, elapsed: 0.0003218650817871094
ell 495, elapsed: 0.0004930496215820312
ell 494, elapsed: 0.00032711029052734375
ell 493, elapsed: 0.00045299530029296875
ell 492, elapsed: 0.00032901763916015625
ell 491, elapsed: 0.0005738735198974609
ell 490, elapsed: 0.00032901763916015625
ell 489, elapsed: 0.0005040168762207031
ell 488, elapsed: 0.0003199577331542969
ell 487, elapsed: 0.00047898292541503906
ell 486, elapsed: 0.0003230571746826172
ell 485, elapsed: 0.00047206878662109375
ell 484, elapsed: 0.0003352165222167969
ell 483, elapsed: 0.00049591064453125
ell 482, elapsed: 0.0003421306610107422
ell 481, elapsed: 0.0004761219024658203
ell 480, elapsed: 0.0003249645233154297
ell 479, elapsed: 0.00046181678771972656
ell 478, elapsed: 0.0003230571746826172
ell 477, elapsed: 0.0004467964172363281
ell 476, elapsed: 0.0003178119659423828
ell 475, elapsed: 0.0004470348358154297
ell 474, elapsed: 0.0003330707550048828
ell 473, elapsed: 0.0004899501800537109
ell 472, elapsed: 0.0003631114959716797
ell 471, elapsed: 0.0004589557647705078
ell 470, elapsed: 0.0003199577331542969
ell 469, elapsed: 0.0004329681396484375
ell 468, elapsed: 0.0003020763397216797
ell 467, elapsed: 0.0004749298095703125
ell 466, elapsed: 0.0003840923309326172
ell 465, elapsed: 0.00045680999755859375
ell 464, elapsed: 0.0003371238708496094
ell 463, elapsed: 0.000492095947265625
ell 462, elapsed: 0.0003180503845214844
ell 461, elapsed: 0.0004458427429199219
ell 460, elapsed: 0.00031304359436035156
ell 459, elapsed: 0.0004639625549316406
ell 458, elapsed: 0.00037407875061035156
ell 457, elapsed: 0.0005660057067871094
ell 456, elapsed: 0.00034499168395996094
ell 455, elapsed: 0.0005040168762207031
ell 454, elapsed: 0.00032591819763183594
ell 453, elapsed: 0.0004799365997314453
ell 452, elapsed: 0.0003371238708496094
ell 451, elapsed: 0.0005080699920654297
ell 450, elapsed: 0.0003528594970703125
ell 449, elapsed: 0.0004761219024658203
ell 448, elapsed: 0.00030803680419921875
ell 447, elapsed: 0.0004210472106933594
ell 446, elapsed: 0.00029397010803222656
ell 445, elapsed: 0.00041794776916503906
ell 444, elapsed: 0.00030517578125
ell 443, elapsed: 0.00043892860412597656
ell 442, elapsed: 0.00030303001403808594
ell 441, elapsed: 0.0005609989166259766
ell 440, elapsed: 0.00031304359436035156
ell 439, elapsed: 0.000431060791015625
ell 438, elapsed: 0.0002949237823486328
ell 437, elapsed: 0.00043201446533203125
ell 436, elapsed: 0.0003170967102050781
ell 435, elapsed: 0.0004429817199707031
ell 434, elapsed: 0.00030112266540527344
ell 433, elapsed: 0.00042891502380371094
ell 432, elapsed: 0.00029397010803222656
ell 431, elapsed: 0.0004119873046875
ell 430, elapsed: 0.0002930164337158203
ell 429, elapsed: 0.0004360675811767578
ell 428, elapsed: 0.0003230571746826172
ell 427, elapsed: 0.0004391670227050781
ell 426, elapsed: 0.00029206275939941406
ell 425, elapsed: 0.00040793418884277344
ell 424, elapsed: 0.00030994415283203125
ell 423, elapsed: 0.0004649162292480469
ell 422, elapsed: 0.00031495094299316406
ell 421, elapsed: 0.00043201446533203125
ell 420, elapsed: 0.0002989768981933594
ell 419, elapsed: 0.00048089027404785156
ell 418, elapsed: 0.0002970695495605469
ell 417, elapsed: 0.0004119873046875
ell 416, elapsed: 0.00028896331787109375
ell 415, elapsed: 0.00046896934509277344
ell 414, elapsed: 0.0003190040588378906
ell 413, elapsed: 0.0004718303680419922
ell 412, elapsed: 0.00030493736267089844
ell 411, elapsed: 0.00042891502380371094
ell 410, elapsed: 0.00031280517578125
ell 409, elapsed: 0.0004260540008544922
ell 408, elapsed: 0.00031113624572753906
ell 407, elapsed: 0.0004482269287109375
ell 406, elapsed: 0.0002980232238769531
ell 405, elapsed: 0.0005140304565429688
ell 404, elapsed: 0.00032401084899902344
ell 403, elapsed: 0.00044608116149902344
ell 402, elapsed: 0.00028705596923828125
ell 401, elapsed: 0.00043392181396484375
ell 400, elapsed: 0.00030303001403808594
ell 399, elapsed: 0.00043392181396484375
ell 398, elapsed: 0.00034308433532714844
ell 397, elapsed: 0.000492095947265625
ell 396, elapsed: 0.0003139972686767578
ell 395, elapsed: 0.00046181678771972656
ell 394, elapsed: 0.0003008842468261719
ell 393, elapsed: 0.0004620552062988281
ell 392, elapsed: 0.0003008842468261719
ell 391, elapsed: 0.00048089027404785156
ell 390, elapsed: 0.0002989768981933594
ell 389, elapsed: 0.00043487548828125
ell 388, elapsed: 0.00030994415283203125
ell 387, elapsed: 0.0004379749298095703
ell 386, elapsed: 0.0002880096435546875
ell 385, elapsed: 0.00043702125549316406
ell 384, elapsed: 0.00031495094299316406
ell 383, elapsed: 0.00041794776916503906
ell 382, elapsed: 0.00029206275939941406
ell 381, elapsed: 0.00040793418884277344
ell 380, elapsed: 0.0002911090850830078
ell 379, elapsed: 0.0006120204925537109
ell 378, elapsed: 0.0003170967102050781
ell 377, elapsed: 0.000431060791015625
ell 376, elapsed: 0.0002930164337158203
ell 375, elapsed: 0.0004200935363769531
ell 374, elapsed: 0.0002961158752441406
ell 373, elapsed: 0.0004899501800537109
ell 372, elapsed: 0.0002961158752441406
ell 371, elapsed: 0.0006251335144042969
ell 370, elapsed: 0.0003070831298828125
ell 369, elapsed: 0.0005030632019042969
ell 368, elapsed: 0.0003230571746826172
ell 367, elapsed: 0.00046515464782714844
ell 366, elapsed: 0.0002989768981933594
ell 365, elapsed: 0.0004439353942871094
ell 364, elapsed: 0.0002980232238769531
ell 363, elapsed: 0.0004401206970214844
ell 362, elapsed: 0.0004048347473144531
ell 361, elapsed: 0.0004649162292480469
ell 360, elapsed: 0.0003020763397216797
ell 359, elapsed: 0.00040602684020996094
ell 358, elapsed: 0.0002989768981933594
ell 357, elapsed: 0.0004811286926269531
ell 356, elapsed: 0.0003199577331542969
ell 355, elapsed: 0.0005030632019042969
ell 354, elapsed: 0.000308990478515625
ell 353, elapsed: 0.0004940032958984375
ell 352, elapsed: 0.0002989768981933594
ell 351, elapsed: 0.00041103363037109375
ell 350, elapsed: 0.0003018379211425781
ell 349, elapsed: 0.00045108795166015625
ell 348, elapsed: 0.0002980232238769531
ell 347, elapsed: 0.00043201446533203125
ell 346, elapsed: 0.0002930164337158203
ell 345, elapsed: 0.0005900859832763672
ell 344, elapsed: 0.00029587745666503906
ell 343, elapsed: 0.0004429817199707031
ell 342, elapsed: 0.00029206275939941406
ell 341, elapsed: 0.0004949569702148438
ell 340, elapsed: 0.0003070831298828125
ell 339, elapsed: 0.0004451274871826172
ell 338, elapsed: 0.0002970695495605469
ell 337, elapsed: 0.00044989585876464844
ell 336, elapsed: 0.0004470348358154297
ell 335, elapsed: 0.0005509853363037109
ell 334, elapsed: 0.00032806396484375
ell 333, elapsed: 0.00045800209045410156
ell 332, elapsed: 0.00030112266540527344
ell 331, elapsed: 0.0004649162292480469
ell 330, elapsed: 0.0002980232238769531
ell 329, elapsed: 0.0003910064697265625
ell 328, elapsed: 0.00042700767517089844
ell 327, elapsed: 0.0004630088806152344
ell 326, elapsed: 0.0003008842468261719
ell 325, elapsed: 0.00042700767517089844
ell 324, elapsed: 0.00029397010803222656
ell 323, elapsed: 0.00046706199645996094
ell 322, elapsed: 0.00031304359436035156
ell 321, elapsed: 0.00043892860412597656
ell 320, elapsed: 0.0003070831298828125
ell 319, elapsed: 0.0005679130554199219
ell 318, elapsed: 0.0003039836883544922
ell 317, elapsed: 0.0005221366882324219
ell 316, elapsed: 0.0003330707550048828
ell 315, elapsed: 0.0005049705505371094
ell 314, elapsed: 0.00032901763916015625
ell 313, elapsed: 0.0004661083221435547
ell 312, elapsed: 0.00032210350036621094
ell 311, elapsed: 0.0005698204040527344
ell 310, elapsed: 0.0003180503845214844
ell 309, elapsed: 0.00042319297790527344
ell 308, elapsed: 0.0002942085266113281
ell 307, elapsed: 0.00043201446533203125
ell 306, elapsed: 0.0003058910369873047
ell 305, elapsed: 0.00046515464782714844
ell 304, elapsed: 0.0003058910369873047
ell 303, elapsed: 0.00045299530029296875
ell 302, elapsed: 0.00044798851013183594
ell 301, elapsed: 0.0004150867462158203
ell 300, elapsed: 0.00029397010803222656
ell 299, elapsed: 0.00039696693420410156
ell 298, elapsed: 0.0002930164337158203
ell 297, elapsed: 0.00047898292541503906
ell 296, elapsed: 0.0003108978271484375
ell 295, elapsed: 0.00042819976806640625
ell 294, elapsed: 0.00030303001403808594
ell 293, elapsed: 0.0005519390106201172
ell 292, elapsed: 0.0002880096435546875
ell 291, elapsed: 0.00040602684020996094
ell 290, elapsed: 0.00030493736267089844
ell 289, elapsed: 0.0004649162292480469
ell 288, elapsed: 0.00030994415283203125
ell 287, elapsed: 0.0004360675811767578
ell 286, elapsed: 0.0003190040588378906
ell 285, elapsed: 0.0006029605865478516
ell 284, elapsed: 0.00030303001403808594
ell 283, elapsed: 0.0004429817199707031
ell 282, elapsed: 0.0003077983856201172
ell 281, elapsed: 0.0004940032958984375
ell 280, elapsed: 0.00031113624572753906
ell 279, elapsed: 0.0004780292510986328
ell 278, elapsed: 0.00030493736267089844
ell 277, elapsed: 0.0005109310150146484
ell 276, elapsed: 0.0003352165222167969
ell 275, elapsed: 0.0004398822784423828
ell 274, elapsed: 0.0003261566162109375
ell 273, elapsed: 0.0004429817199707031
ell 272, elapsed: 0.00033211708068847656
ell 271, elapsed: 0.000476837158203125
ell 270, elapsed: 0.00033020973205566406
ell 269, elapsed: 0.00046706199645996094
ell 268, elapsed: 0.0004200935363769531
ell 267, elapsed: 0.00046181678771972656
ell 266, elapsed: 0.0003070831298828125
ell 265, elapsed: 0.0005059242248535156
ell 264, elapsed: 0.00030803680419921875
ell 263, elapsed: 0.00041794776916503906
ell 262, elapsed: 0.00029206275939941406
ell 261, elapsed: 0.00047206878662109375
ell 260, elapsed: 0.0004360675811767578
ell 259, elapsed: 0.00045013427734375
ell 258, elapsed: 0.0003190040588378906
ell 257, elapsed: 0.0004601478576660156
ell 256, elapsed: 0.00031495094299316406
ell 255, elapsed: 0.000476837158203125
ell 254, elapsed: 0.00031495094299316406
ell 253, elapsed: 0.00040912628173828125
ell 252, elapsed: 0.00029206275939941406
ell 251, elapsed: 0.0006580352783203125
ell 250, elapsed: 0.0003120899200439453
ell 249, elapsed: 0.00042700767517089844
ell 248, elapsed: 0.0002949237823486328
ell 247, elapsed: 0.00041294097900390625
ell 246, elapsed: 0.0002989768981933594
ell 245, elapsed: 0.0004248619079589844
ell 244, elapsed: 0.0003018379211425781
ell 243, elapsed: 0.00041604042053222656
ell 242, elapsed: 0.000453948974609375
ell 241, elapsed: 0.0004658699035644531
ell 240, elapsed: 0.0003170967102050781
ell 239, elapsed: 0.00046896934509277344
ell 238, elapsed: 0.00032401084899902344
ell 237, elapsed: 0.00045299530029296875
ell 236, elapsed: 0.0003108978271484375
ell 235, elapsed: 0.0004279613494873047
ell 234, elapsed: 0.00046706199645996094
ell 233, elapsed: 0.0005261898040771484
ell 232, elapsed: 0.00031495094299316406
ell 231, elapsed: 0.0004889965057373047
ell 230, elapsed: 0.0002999305725097656
ell 229, elapsed: 0.00042700767517089844
ell 228, elapsed: 0.0002968311309814453
ell 227, elapsed: 0.00043392181396484375
ell 226, elapsed: 0.0003159046173095703
ell 225, elapsed: 0.0006780624389648438
ell 224, elapsed: 0.0003459453582763672
ell 223, elapsed: 0.0004611015319824219
ell 222, elapsed: 0.0003070831298828125
ell 221, elapsed: 0.00045800209045410156
ell 220, elapsed: 0.0003249645233154297
ell 219, elapsed: 0.0004482269287109375
ell 218, elapsed: 0.00030994415283203125
ell 217, elapsed: 0.0006439685821533203
ell 216, elapsed: 0.000308990478515625
ell 215, elapsed: 0.0004699230194091797
ell 214, elapsed: 0.0002999305725097656
ell 213, elapsed: 0.00041794776916503906
ell 212, elapsed: 0.0002892017364501953
ell 211, elapsed: 0.00040602684020996094
ell 210, elapsed: 0.00028395652770996094
ell 209, elapsed: 0.00041413307189941406
ell 208, elapsed: 0.0003390312194824219
ell 207, elapsed: 0.0004930496215820312
ell 206, elapsed: 0.0003101825714111328
ell 205, elapsed: 0.0004410743713378906
ell 204, elapsed: 0.0002970695495605469
ell 203, elapsed: 0.00041484832763671875
ell 202, elapsed: 0.00028586387634277344
ell 201, elapsed: 0.00041604042053222656
ell 200, elapsed: 0.00028204917907714844
ell 199, elapsed: 0.0004169940948486328
ell 198, elapsed: 0.00029397010803222656
ell 197, elapsed: 0.0004379749298095703
ell 196, elapsed: 0.00028896331787109375
ell 195, elapsed: 0.0004611015319824219
ell 194, elapsed: 0.0003211498260498047
ell 193, elapsed: 0.0004749298095703125
ell 192, elapsed: 0.00031185150146484375
ell 191, elapsed: 0.0006649494171142578
ell 190, elapsed: 0.00034809112548828125
ell 189, elapsed: 0.0005190372467041016
ell 188, elapsed: 0.0003330707550048828
ell 187, elapsed: 0.0004878044128417969
ell 186, elapsed: 0.0003180503845214844
ell 185, elapsed: 0.0004398822784423828
ell 184, elapsed: 0.00030493736267089844
ell 183, elapsed: 0.0005929470062255859
ell 182, elapsed: 0.00031495094299316406
ell 181, elapsed: 0.0004379749298095703
ell 180, elapsed: 0.00028705596923828125
ell 179, elapsed: 0.0004220008850097656
ell 178, elapsed: 0.0002849102020263672
ell 177, elapsed: 0.00043892860412597656
ell 176, elapsed: 0.00029397010803222656
ell 175, elapsed: 0.00043487548828125
ell 174, elapsed: 0.0004189014434814453
ell 173, elapsed: 0.0004918575286865234
ell 172, elapsed: 0.0002980232238769531
ell 171, elapsed: 0.00040984153747558594
ell 170, elapsed: 0.00027108192443847656
ell 169, elapsed: 0.0003800392150878906
ell 168, elapsed: 0.0002799034118652344
ell 167, elapsed: 0.0003788471221923828
ell 166, elapsed: 0.00026988983154296875
ell 165, elapsed: 0.00038695335388183594
ell 164, elapsed: 0.0003018379211425781
ell 163, elapsed: 0.0004138946533203125
ell 162, elapsed: 0.0002899169921875
ell 161, elapsed: 0.0003948211669921875
ell 160, elapsed: 0.0002739429473876953
ell 159, elapsed: 0.0003838539123535156
ell 158, elapsed: 0.0002739429473876953
ell 157, elapsed: 0.0003731250762939453
ell 156, elapsed: 0.000270843505859375
ell 155, elapsed: 0.0006060600280761719
ell 154, elapsed: 0.00030112266540527344
ell 153, elapsed: 0.0004210472106933594
ell 152, elapsed: 0.00028204917907714844
ell 151, elapsed: 0.00039696693420410156
ell 150, elapsed: 0.0002720355987548828
ell 149, elapsed: 0.00039196014404296875
ell 148, elapsed: 0.00027298927307128906
ell 147, elapsed: 0.0003769397735595703
ell 146, elapsed: 0.00027298927307128906
ell 145, elapsed: 0.0004971027374267578
ell 144, elapsed: 0.0002739429473876953
ell 143, elapsed: 0.00037288665771484375
ell 142, elapsed: 0.0002720355987548828
ell 141, elapsed: 0.0003898143768310547
ell 140, elapsed: 0.00028705596923828125
ell 139, elapsed: 0.00040411949157714844
ell 138, elapsed: 0.0002818107604980469
ell 137, elapsed: 0.0003819465637207031
ell 136, elapsed: 0.00027298927307128906
ell 135, elapsed: 0.0005278587341308594
ell 134, elapsed: 0.0002758502960205078
ell 133, elapsed: 0.0004291534423828125
ell 132, elapsed: 0.0002789497375488281
ell 131, elapsed: 0.0004730224609375
ell 130, elapsed: 0.0002760887145996094
ell 129, elapsed: 0.0003991127014160156
ell 128, elapsed: 0.00028514862060546875
ell 127, elapsed: 0.00040078163146972656
ell 126, elapsed: 0.0004019737243652344
ell 125, elapsed: 0.00045800209045410156
ell 124, elapsed: 0.00030112266540527344
ell 123, elapsed: 0.00043201446533203125
ell 122, elapsed: 0.00030112266540527344
ell 121, elapsed: 0.00044083595275878906
ell 120, elapsed: 0.0002899169921875
ell 119, elapsed: 0.0004038810729980469
ell 118, elapsed: 0.0003058910369873047
ell 117, elapsed: 0.0006079673767089844
ell 116, elapsed: 0.0002989768981933594
ell 115, elapsed: 0.0004229545593261719
ell 114, elapsed: 0.00028896331787109375
ell 113, elapsed: 0.0003960132598876953
ell 112, elapsed: 0.0002849102020263672
ell 111, elapsed: 0.0004100799560546875
ell 110, elapsed: 0.0002880096435546875
ell 109, elapsed: 0.00040602684020996094
ell 108, elapsed: 0.00039696693420410156
ell 107, elapsed: 0.0004639625549316406
ell 106, elapsed: 0.0002989768981933594
ell 105, elapsed: 0.00043010711669921875
ell 104, elapsed: 0.00029206275939941406
ell 103, elapsed: 0.0004010200500488281
ell 102, elapsed: 0.0002980232238769531
ell 101, elapsed: 0.0004208087921142578
ell 100, elapsed: 0.00028514862060546875
ell 99, elapsed: 0.0005819797515869141
ell 98, elapsed: 0.0003101825714111328
ell 97, elapsed: 0.00044083595275878906
ell 96, elapsed: 0.0003027915954589844
ell 95, elapsed: 0.00042700767517089844
ell 94, elapsed: 0.0002970695495605469
ell 93, elapsed: 0.0004138946533203125
ell 92, elapsed: 0.0002989768981933594
ell 91, elapsed: 0.0004189014434814453
ell 90, elapsed: 0.0004429817199707031
ell 89, elapsed: 0.00043702125549316406
ell 88, elapsed: 0.0002949237823486328
ell 87, elapsed: 0.0004200935363769531
ell 86, elapsed: 0.00030112266540527344
ell 85, elapsed: 0.000431060791015625
ell 84, elapsed: 0.0002951622009277344
ell 83, elapsed: 0.0004191398620605469
ell 82, elapsed: 0.00028395652770996094
ell 81, elapsed: 0.0005581378936767578
ell 80, elapsed: 0.0003070831298828125
ell 79, elapsed: 0.00043582916259765625
ell 78, elapsed: 0.00031304359436035156
ell 77, elapsed: 0.00044798851013183594
ell 76, elapsed: 0.0002989768981933594
ell 75, elapsed: 0.0004458427429199219
ell 74, elapsed: 0.00031113624572753906
ell 73, elapsed: 0.00041794776916503906
ell 72, elapsed: 0.00045299530029296875
ell 71, elapsed: 0.00044918060302734375
ell 70, elapsed: 0.0002999305725097656
ell 69, elapsed: 0.00042700767517089844
ell 68, elapsed: 0.0002760887145996094
ell 67, elapsed: 0.0003859996795654297
ell 66, elapsed: 0.00028586387634277344
ell 65, elapsed: 0.0003991127014160156
ell 64, elapsed: 0.00029087066650390625
ell 63, elapsed: 0.0005018711090087891
ell 62, elapsed: 0.00032401084899902344
ell 61, elapsed: 0.00042700767517089844
ell 60, elapsed: 0.00029778480529785156
ell 59, elapsed: 0.0004169940948486328
ell 58, elapsed: 0.000286102294921875
ell 57, elapsed: 0.0004000663757324219
ell 56, elapsed: 0.00028896331787109375
ell 55, elapsed: 0.00040984153747558594
ell 54, elapsed: 0.0002830028533935547
ell 53, elapsed: 0.00042891502380371094
ell 52, elapsed: 0.0002849102020263672
ell 51, elapsed: 0.00039196014404296875
ell 50, elapsed: 0.0002880096435546875
ell 49, elapsed: 0.000431060791015625
ell 48, elapsed: 0.00029087066650390625
ell 47, elapsed: 0.00040721893310546875
ell 46, elapsed: 0.0002799034118652344
ell 45, elapsed: 0.0003941059112548828
ell 44, elapsed: 0.0003330707550048828
ell 43, elapsed: 0.0004410743713378906
ell 42, elapsed: 0.0003008842468261719
ell 41, elapsed: 0.00041413307189941406
ell 40, elapsed: 0.0003008842468261719
ell 39, elapsed: 0.0004229545593261719
ell 38, elapsed: 0.0002899169921875
ell 37, elapsed: 0.0004150867462158203
ell 36, elapsed: 0.00030112266540527344
ell 35, elapsed: 0.0004241466522216797
ell 34, elapsed: 0.00029921531677246094
ell 33, elapsed: 0.00041985511779785156
ell 32, elapsed: 0.0003170967102050781
ell 31, elapsed: 0.00041985511779785156
ell 30, elapsed: 0.00029206275939941406
ell 29, elapsed: 0.00042700767517089844
ell 28, elapsed: 0.00029015541076660156
ell 27, elapsed: 0.00040793418884277344
ell 26, elapsed: 0.00028896331787109375
ell 25, elapsed: 0.0005881786346435547
ell 24, elapsed: 0.0002951622009277344
ell 23, elapsed: 0.0004057884216308594
ell 22, elapsed: 0.0002830028533935547
ell 21, elapsed: 0.0004100799560546875
ell 20, elapsed: 0.0002899169921875
ell 19, elapsed: 0.0004220008850097656
ell 18, elapsed: 0.00028514862060546875
ell 17, elapsed: 0.00040984153747558594
ell 16, elapsed: 0.00041294097900390625
ell 15, elapsed: 0.0004131793975830078
ell 14, elapsed: 0.00028204917907714844
ell 13, elapsed: 0.0004298686981201172
ell 12, elapsed: 0.00028204917907714844
ell 11, elapsed: 0.0004100799560546875
ell 10, elapsed: 0.0002849102020263672
ell 9, elapsed: 0.000415802001953125
ell 8, elapsed: 0.0002830028533935547
ell 7, elapsed: 0.0005521774291992188
ell 6, elapsed: 0.00031185150146484375
ell 5, elapsed: 0.0004489421844482422
ell 4, elapsed: 0.00030112266540527344
ell 3, elapsed: 0.00042700767517089844
ell 2, elapsed: 0.0002810955047607422
ell 1, elapsed: 0.0004048347473144531
ell 0, elapsed: 0.0002949237823486328
  0.590060 seconds (47.32 k allocations: 2.657 MiB)
elapsed: 0.0005638599395751953
step:          0.051108 sec (0 allocations: 0 byte, 0.0% gc time)
swapping:      0.001019 sec (0 allocations: 0 byte, 0.0% gc time)
calc_Mellell!: 0.007247 sec (0 allocations: 0 byte, 0.0% gc time)
  t0 :  0.003254 sec (0 allocations: 0 byte, 0.0% gc time)
  tm2 : 0.076228 sec (0 allocations: 0 byte, 0.0% gc time)
  tm2s: 0.002793 sec (0 allocations: 0 byte, 0.0% gc time)
  tm4 : 0.160077 sec (0 allocations: 0 byte, 0.0% gc time)
  tp2 : 0.0 sec (0 allocations: 0 byte, 0.0% gc time)
  tp2s: 0.0 sec (0 allocations: 0 byte, 0.0% gc time)
  tp4 : 0.0 sec (0 allocations: 0 byte, 0.0% gc time)
calc_wtdll!:   0.273998 sec (9.797 k allocations: 1.039 MB, 0.0% gc time)
calc_wljj!:    0.034134 sec (689 allocations: 10.766 KB, 0.0% gc time)
mult_prefac!:  0.0 sec (0 allocations: 0 byte, 0.0% gc time)
convert:       0.0 sec (0 allocations: 0 byte, 0.0% gc time)
write:         0.104025 sec (0 allocations: 0 byte, 0.0% gc time)
test_rand_2f1: 0.0 sec (0 allocations: 0 byte, 0.0% gc time)
Closing outfile out/Ml21-cache.bin...   1.268632 seconds
  0.000566 seconds (53 allocations: 28.375 KiB)
make_phi():   0.001712 seconds (8.21 k allocations: 238.328 KiB)
  0.144827 seconds (146.69 k allocations: 3.629 MiB)
tskip:       0.000847 sec (0 allocations: 0 byte, 0.0% gc time)
tread:       0.026841 sec (10 allocations: 10.266 KB, 0.0% gc time)
tmultphi:    0.009457 sec (0 allocations: 0 byte, 0.0% gc time)
tbrfft:      0.04214 sec (9.592 k allocations: 449.625 KB, 0.0% gc time)
tmultprefac: 0.01981 sec (0 allocations: 0 byte, 0.0% gc time)
toutfunc:    0.043858 sec (129.905 k allocations: 2.421 MB, 0.0% gc time)
Testing R=1.0 ... passed
Calculating fmax: 
  dlrec    = 4
  dlrecRg1 = -4
  q=1.1, R=0.9:	  1.169159 seconds (191.30 k allocations: 71.076 MiB, 25.55% gc time)

  1.169498 seconds (191.35 k allocations: 71.109 MiB, 25.55% gc time)
ℓ = 1202
Δℓ = 4
ΔℓRg1 = -4
N = 1600
q = 1.1
kmin = 1.0e-5
kmax = 100000.00000000004
χ0 = 0.023029999999999995
RR = RR.tsv
ℓmax = ℓmax.bin
f21 = f21.bin
kmin = 1.0e-5
kmax = 100000.0
dlrec    = 4
dlrecRg1 = -4
Output size: 5741568 bytes = 0.005347251892089844 GiB
Output size: 51264 bytes = 4.774332046508789e-5 GiB
Reading 'out/F21EllCache'...   0.001186 seconds (348 allocations: 85.719 KiB)
ellmax: 1202
lmaxcache: 1202
fell[:,1,1] = Complex{Float64}[1.3482e-57-3.30214e-73im, 1.35786e-57-3.3258e-73im]
ell 1202, elapsed: 3.409385681152344e-5
ell 1201, elapsed: 0.00026702880859375
ell 1200, elapsed: 0.000244140625
ell 1199, elapsed: 0.00024318695068359375
ell 1198, elapsed: 0.0002410411834716797
ell 1002, elapsed: 0.024827957153320312
ell 1001, elapsed: 0.00028204917907714844
ell 1000, elapsed: 0.0002808570861816406
ell 999, elapsed: 0.0002689361572265625
ell 998, elapsed: 0.0002589225769042969
ell 902, elapsed: 0.012271881103515625
ell 901, elapsed: 0.0004100799560546875
ell 900, elapsed: 0.00030112266540527344
ell 899, elapsed: 0.0002799034118652344
ell 898, elapsed: 0.0002720355987548828
ell 802, elapsed: 0.02459406852722168
ell 801, elapsed: 0.00027108192443847656
ell 800, elapsed: 0.0002582073211669922
ell 799, elapsed: 0.0002570152282714844
ell 798, elapsed: 0.0002961158752441406
ell 702, elapsed: 0.01256704330444336
ell 701, elapsed: 0.0003161430358886719
ell 700, elapsed: 0.00026917457580566406
ell 699, elapsed: 0.0002639293670654297
ell 698, elapsed: 0.00027489662170410156
ell 602, elapsed: 0.004586935043334961
ell 601, elapsed: 0.0002849102020263672
ell 600, elapsed: 0.0002720355987548828
ell 599, elapsed: 0.0002751350402832031
ell 598, elapsed: 0.00032901763916015625
ell 502, elapsed: 0.00447392463684082
ell 501, elapsed: 0.00028705596923828125
ell 500, elapsed: 0.0002799034118652344
ell 499, elapsed: 0.00027680397033691406
ell 498, elapsed: 0.0002739429473876953
ell 402, elapsed: 0.012723922729492188
ell 401, elapsed: 0.0003058910369873047
ell 400, elapsed: 0.0003261566162109375
ell 399, elapsed: 0.0002961158752441406
ell 398, elapsed: 0.00029587745666503906
ell 302, elapsed: 0.0046770572662353516
ell 301, elapsed: 0.00028395652770996094
ell 300, elapsed: 0.00028014183044433594
ell 299, elapsed: 0.0002810955047607422
ell 298, elapsed: 0.00030684471130371094
ell 202, elapsed: 0.012861013412475586
ell 201, elapsed: 0.0003039836883544922
ell 200, elapsed: 0.0002779960632324219
ell 199, elapsed: 0.0002758502960205078
ell 198, elapsed: 0.0002830028533935547
ell 152, elapsed: 0.0023031234741210938
ell 151, elapsed: 0.00029397010803222656
ell 150, elapsed: 0.0002849102020263672
ell 149, elapsed: 0.0002789497375488281
ell 148, elapsed: 0.0002739429473876953
ell 127, elapsed: 0.0014450550079345703
ell 126, elapsed: 0.00029397010803222656
ell 125, elapsed: 0.0002827644348144531
ell 124, elapsed: 0.016440868377685547
ell 123, elapsed: 0.0002899169921875
ell 114, elapsed: 0.0006849765777587891
ell 113, elapsed: 0.0002770423889160156
ell 112, elapsed: 0.000286102294921875
ell 111, elapsed: 0.0002770423889160156
ell 110, elapsed: 0.0002849102020263672
ell 102, elapsed: 0.0008738040924072266
ell 101, elapsed: 0.0002951622009277344
ell 100, elapsed: 0.0002732276916503906
ell 99, elapsed: 0.00027108192443847656
ell 98, elapsed: 0.00027298927307128906
ell 97, elapsed: 0.0003299713134765625
ell 96, elapsed: 0.0005049705505371094
ell 95, elapsed: 0.0003190040588378906
ell 94, elapsed: 0.0004591941833496094
ell 93, elapsed: 0.0003180503845214844
ell 92, elapsed: 0.0004730224609375
ell 91, elapsed: 0.0003008842468261719
ell 90, elapsed: 0.0004558563232421875
ell 89, elapsed: 0.0003139972686767578
ell 88, elapsed: 0.0004429817199707031
ell 87, elapsed: 0.00030612945556640625
ell 86, elapsed: 0.00047397613525390625
ell 85, elapsed: 0.00031495094299316406
ell 84, elapsed: 0.008543014526367188
ell 83, elapsed: 0.00043702125549316406
ell 82, elapsed: 0.0004901885986328125
ell 81, elapsed: 0.0003170967102050781
ell 80, elapsed: 0.0004398822784423828
ell 79, elapsed: 0.0003871917724609375
ell 78, elapsed: 0.0004811286926269531
ell 77, elapsed: 0.00031495094299316406
ell 76, elapsed: 0.0005691051483154297
ell 75, elapsed: 0.0003180503845214844
ell 74, elapsed: 0.0004420280456542969
ell 73, elapsed: 0.0002911090850830078
ell 72, elapsed: 0.00043487548828125
ell 71, elapsed: 0.0003018379211425781
ell 70, elapsed: 0.00043082237243652344
ell 69, elapsed: 0.0002911090850830078
ell 68, elapsed: 0.0004410743713378906
ell 67, elapsed: 0.0004029273986816406
ell 66, elapsed: 0.0004680156707763672
ell 65, elapsed: 0.0003077983856201172
ell 64, elapsed: 0.00041604042053222656
ell 63, elapsed: 0.0002899169921875
ell 62, elapsed: 0.0004470348358154297
ell 61, elapsed: 0.00029397010803222656
ell 60, elapsed: 0.00044989585876464844
ell 59, elapsed: 0.020426034927368164
ell 58, elapsed: 0.00047707557678222656
ell 57, elapsed: 0.0003020763397216797
ell 56, elapsed: 0.0004360675811767578
ell 55, elapsed: 0.0003139972686767578
ell 54, elapsed: 0.0004317760467529297
ell 53, elapsed: 0.0002911090850830078
ell 52, elapsed: 0.0004279613494873047
ell 51, elapsed: 0.0002980232238769531
ell 50, elapsed: 0.0005159378051757812
ell 49, elapsed: 0.00031685829162597656
ell 48, elapsed: 0.0004329681396484375
ell 47, elapsed: 0.00030493736267089844
ell 46, elapsed: 0.00044608116149902344
ell 45, elapsed: 0.00033402442932128906
ell 44, elapsed: 0.00047016143798828125
ell 43, elapsed: 0.0003151893615722656
ell 42, elapsed: 0.0005481243133544922
ell 41, elapsed: 0.00032806396484375
ell 40, elapsed: 0.0004448890686035156
ell 39, elapsed: 0.0003199577331542969
ell 38, elapsed: 0.0004611015319824219
ell 37, elapsed: 0.0003170967102050781
ell 36, elapsed: 0.00046706199645996094
ell 35, elapsed: 0.00030803680419921875
ell 34, elapsed: 0.0004868507385253906
ell 33, elapsed: 0.0003170967102050781
ell 32, elapsed: 0.00045800209045410156
ell 31, elapsed: 0.00030803680419921875
ell 30, elapsed: 0.0004448890686035156
ell 29, elapsed: 0.00034499168395996094
ell 28, elapsed: 0.0005888938903808594
ell 27, elapsed: 0.00040602684020996094
ell 26, elapsed: 0.0005919933319091797
ell 25, elapsed: 0.0003459453582763672
ell 24, elapsed: 0.0005660057067871094
ell 23, elapsed: 0.0003859996795654297
ell 22, elapsed: 0.0006129741668701172
ell 21, elapsed: 0.0009529590606689453
ell 20, elapsed: 0.0005280971527099609
ell 19, elapsed: 0.00030803680419921875
ell 18, elapsed: 0.0004069805145263672
ell 17, elapsed: 0.0003020763397216797
ell 16, elapsed: 0.000453948974609375
ell 15, elapsed: 0.0003070831298828125
ell 14, elapsed: 0.0004239082336425781
ell 13, elapsed: 0.00029778480529785156
ell 12, elapsed: 0.00047898292541503906
ell 11, elapsed: 0.00029206275939941406
ell 10, elapsed: 0.0004172325134277344
ell 9, elapsed: 0.0002980232238769531
ell 8, elapsed: 0.0004661083221435547
ell 7, elapsed: 0.0003390312194824219
ell 6, elapsed: 0.0005879402160644531
ell 5, elapsed: 0.0003809928894042969
ell 4, elapsed: 0.0005369186401367188
ell 3, elapsed: 0.0003368854522705078
ell 2, elapsed: 0.0005719661712646484
ell 1, elapsed: 0.00041604042053222656
ell 0, elapsed: 0.0005831718444824219
  0.234643 seconds (11.65 k allocations: 657.125 KiB)
elapsed: 0.0005838871002197266
step:          0.109957 sec (0 allocations: 0 byte, 0.0% gc time)
swapping:      0.000723 sec (0 allocations: 0 byte, 0.0% gc time)
calc_Mellell!: 0.001298 sec (0 allocations: 0 byte, 0.0% gc time)
  t0 :  0.0005 sec (0 allocations: 0 byte, 0.0% gc time)
  tm2 : 0.018914 sec (0 allocations: 0 byte, 0.0% gc time)
  tm2s: 0.000433 sec (0 allocations: 0 byte, 0.0% gc time)
  tm4 : 0.058984 sec (0 allocations: 0 byte, 0.0% gc time)
  tp2 : 0.0 sec (0 allocations: 0 byte, 0.0% gc time)
  tp2s: 0.0 sec (0 allocations: 0 byte, 0.0% gc time)
  tp4 : 0.0 sec (0 allocations: 0 byte, 0.0% gc time)
calc_wtdll!:   0.079516 sec (1.344 k allocations: 147.0 KB, 0.0% gc time)
calc_wljj!:    0.003634 sec (6 allocations: 96 byte, 0.0% gc time)
mult_prefac!:  0.0 sec (0 allocations: 0 byte, 0.0% gc time)
convert:       0.0 sec (0 allocations: 0 byte, 0.0% gc time)
write:         0.009617 sec (0 allocations: 0 byte, 0.0% gc time)
test_rand_2f1: 0.0 sec (0 allocations: 0 byte, 0.0% gc time)
Closing outfile out/Ml21-cache.bin...   0.099447 seconds
  0.001362 seconds (53 allocations: 28.375 KiB)
make_phi():   0.004374 seconds (8.21 k allocations: 238.328 KiB)
  0.028225 seconds (12.10 k allocations: 322.000 KiB)
tskip:       5.7e-5 sec (0 allocations: 0 byte, 0.0% gc time)
tread:       0.004497 sec (10 allocations: 1.75 KB, 0.0% gc time)
tmultphi:    0.00189 sec (0 allocations: 0 byte, 0.0% gc time)
tbrfft:      0.008834 sec (896 allocations: 42.0 KB, 0.0% gc time)
tmultprefac: 0.003807 sec (0 allocations: 0 byte, 0.0% gc time)
toutfunc:    0.009004 sec (10.528 k allocations: 206.5 KB, 0.0% gc time)
Testing R=0.9 ... passed
Calculating fmax: 
  dlrec    = 4
  dlrecRg1 = -4
  q=1.1, R=0.8:	  0.427816 seconds (186.69 k allocations: 69.297 MiB, 2.33% gc time)

  0.428063 seconds (186.74 k allocations: 69.329 MiB, 2.33% gc time)
ℓ = 1202
Δℓ = 4
ΔℓRg1 = -4
N = 1600
q = 1.1
kmin = 1.0e-5
kmax = 100000.00000000004
χ0 = 0.023029999999999995
RR = RR.tsv
ℓmax = ℓmax.bin
f21 = f21.bin
kmin = 1.0e-5
kmax = 100000.0
dlrec    = 4
dlrecRg1 = -4
Output size: 5741568 bytes = 0.005347251892089844 GiB
Output size: 51264 bytes = 4.774332046508789e-5 GiB
Reading 'out/F21EllCache'...   0.000862 seconds (348 allocations: 85.719 KiB)
ellmax: 1202
lmaxcache: 1202
fell[:,1,1] = Complex{Float64}[7.51907e-120-1.84164e-135im, 7.54166e-120-1.84718e-135im]
ell 1202, elapsed: 1.8835067749023438e-5
ell 1201, elapsed: 0.00028204917907714844
ell 1200, elapsed: 0.00026702880859375
ell 1199, elapsed: 0.00026798248291015625
ell 1198, elapsed: 0.0002968311309814453
ell 1002, elapsed: 0.01088094711303711
ell 1001, elapsed: 0.00027489662170410156
ell 1000, elapsed: 0.0002651214599609375
ell 999, elapsed: 0.00026988983154296875
ell 998, elapsed: 0.00026798248291015625
ell 902, elapsed: 0.007573843002319336
ell 901, elapsed: 0.00027489662170410156
ell 900, elapsed: 0.00026798248291015625
ell 899, elapsed: 0.0002701282501220703
ell 898, elapsed: 0.002722024917602539
ell 802, elapsed: 0.006981849670410156
ell 801, elapsed: 0.0002999305725097656
ell 800, elapsed: 0.0002739429473876953
ell 799, elapsed: 0.00026988983154296875
ell 798, elapsed: 0.0002720355987548828
ell 702, elapsed: 0.005632162094116211
ell 701, elapsed: 0.0002841949462890625
ell 700, elapsed: 0.0002689361572265625
ell 699, elapsed: 0.0002689361572265625
ell 698, elapsed: 0.0002739429473876953
ell 602, elapsed: 0.008012056350708008
ell 601, elapsed: 0.0002799034118652344
ell 600, elapsed: 0.0002689361572265625
ell 599, elapsed: 0.00026702880859375
ell 598, elapsed: 0.00026679039001464844
ell 502, elapsed: 0.007569074630737305
ell 501, elapsed: 0.00030303001403808594
ell 500, elapsed: 0.0002789497375488281
ell 499, elapsed: 0.0019538402557373047
ell 498, elapsed: 0.0002830028533935547
ell 402, elapsed: 0.0058519840240478516
ell 401, elapsed: 0.0002770423889160156
ell 400, elapsed: 0.00027108192443847656
ell 399, elapsed: 0.0002808570861816406
ell 398, elapsed: 0.00028514862060546875
ell 302, elapsed: 0.005249977111816406
ell 301, elapsed: 0.0002799034118652344
ell 300, elapsed: 0.000270843505859375
ell 299, elapsed: 0.0003311634063720703
ell 298, elapsed: 0.00027298927307128906
ell 202, elapsed: 0.00540614128112793
ell 201, elapsed: 0.0002849102020263672
ell 200, elapsed: 0.0002701282501220703
ell 199, elapsed: 0.00028014183044433594
ell 198, elapsed: 0.0002739429473876953
ell 152, elapsed: 0.002814054489135742
ell 151, elapsed: 0.0002789497375488281
ell 150, elapsed: 0.00027298927307128906
ell 149, elapsed: 0.0002739429473876953
ell 148, elapsed: 0.0002770423889160156
ell 127, elapsed: 0.0013649463653564453
ell 126, elapsed: 0.0002760887145996094
ell 125, elapsed: 0.00026798248291015625
ell 124, elapsed: 0.0002701282501220703
ell 123, elapsed: 0.00027108192443847656
ell 114, elapsed: 0.0006418228149414062
ell 113, elapsed: 0.00026488304138183594
ell 112, elapsed: 0.00026702880859375
ell 111, elapsed: 0.0009851455688476562
ell 110, elapsed: 0.00031113624572753906
ell 102, elapsed: 0.0007891654968261719
ell 101, elapsed: 0.0002751350402832031
ell 100, elapsed: 0.00027108192443847656
ell 99, elapsed: 0.00027108192443847656
ell 98, elapsed: 0.0002770423889160156
ell 97, elapsed: 0.0003800392150878906
ell 96, elapsed: 0.0004429817199707031
ell 95, elapsed: 0.0003008842468261719
ell 94, elapsed: 0.00043320655822753906
ell 93, elapsed: 0.00030803680419921875
ell 92, elapsed: 0.0004138946533203125
ell 91, elapsed: 0.0002980232238769531
ell 90, elapsed: 0.00042700767517089844
ell 89, elapsed: 0.00030493736267089844
ell 88, elapsed: 0.0005679130554199219
ell 87, elapsed: 0.0008618831634521484
ell 86, elapsed: 0.0004749298095703125
ell 85, elapsed: 0.0003120899200439453
ell 84, elapsed: 0.0004429817199707031
ell 83, elapsed: 0.00030803680419921875
ell 82, elapsed: 0.0004410743713378906
ell 81, elapsed: 0.0003561973571777344
ell 80, elapsed: 0.00041294097900390625
ell 79, elapsed: 0.00030112266540527344
ell 78, elapsed: 0.0004241466522216797
ell 77, elapsed: 0.0002968311309814453
ell 76, elapsed: 0.0004119873046875
ell 75, elapsed: 0.00029397010803222656
ell 74, elapsed: 0.00041103363037109375
ell 73, elapsed: 0.0002930164337158203
ell 72, elapsed: 0.0008199214935302734
ell 71, elapsed: 0.0005240440368652344
ell 70, elapsed: 0.0004260540008544922
ell 69, elapsed: 0.00029587745666503906
ell 68, elapsed: 0.00040912628173828125
ell 67, elapsed: 0.00029397010803222656
ell 66, elapsed: 0.00039696693420410156
ell 65, elapsed: 0.0002980232238769531
ell 64, elapsed: 0.0004780292510986328
ell 63, elapsed: 0.0002980232238769531
ell 62, elapsed: 0.0004191398620605469
ell 61, elapsed: 0.0002989768981933594
ell 60, elapsed: 0.0004150867462158203
ell 59, elapsed: 0.0002989768981933594
ell 58, elapsed: 0.0004379749298095703
ell 57, elapsed: 0.00030612945556640625
ell 56, elapsed: 0.0004241466522216797
ell 55, elapsed: 0.0003108978271484375
ell 54, elapsed: 0.0004169940948486328
ell 53, elapsed: 0.0002961158752441406
ell 52, elapsed: 0.0004088878631591797
ell 51, elapsed: 0.0003020763397216797
ell 50, elapsed: 0.0004220008850097656
ell 49, elapsed: 0.00030303001403808594
ell 48, elapsed: 0.00043201446533203125
ell 47, elapsed: 0.00031304359436035156
ell 46, elapsed: 0.0004999637603759766
ell 45, elapsed: 0.00031495094299316406
ell 44, elapsed: 0.0004608631134033203
ell 43, elapsed: 0.00030803680419921875
ell 42, elapsed: 0.00041294097900390625
ell 41, elapsed: 0.00030493736267089844
ell 40, elapsed: 0.00041294097900390625
ell 39, elapsed: 0.0003001689910888672
ell 38, elapsed: 0.0004639625549316406
ell 37, elapsed: 0.0003600120544433594
ell 36, elapsed: 0.0004138946533203125
[...]
ell 788, elapsed: 0.0006620883941650391
ell 782, elapsed: 0.0015120506286621094
ell 781, elapsed: 0.0006151199340820312
ell 780, elapsed: 0.0006968975067138672
ell 779, elapsed: 0.0007700920104980469
ell 778, elapsed: 0.0006299018859863281
ell 772, elapsed: 0.0016019344329833984
ell 771, elapsed: 0.0006108283996582031
ell 770, elapsed: 0.0007331371307373047
ell 769, elapsed: 0.0006368160247802734
ell 768, elapsed: 0.0006799697875976562
ell 762, elapsed: 0.001461029052734375
ell 761, elapsed: 0.0008361339569091797
ell 760, elapsed: 0.0006380081176757812
ell 759, elapsed: 0.0006039142608642578
ell 758, elapsed: 0.0006330013275146484
ell 752, elapsed: 0.002151012420654297
ell 751, elapsed: 0.0006768703460693359
ell 750, elapsed: 0.0008211135864257812
ell 749, elapsed: 0.0007319450378417969
ell 748, elapsed: 0.0007059574127197266
ell 742, elapsed: 0.008795976638793945
ell 741, elapsed: 0.0009047985076904297
ell 740, elapsed: 0.0007269382476806641
ell 739, elapsed: 0.0006620883941650391
ell 738, elapsed: 0.0008258819580078125
ell 732, elapsed: 0.0016870498657226562
ell 731, elapsed: 0.0007171630859375
ell 730, elapsed: 0.0008618831634521484
ell 729, elapsed: 0.0007109642028808594
ell 728, elapsed: 0.0006499290466308594
ell 722, elapsed: 0.0016717910766601562
ell 721, elapsed: 0.0007948875427246094
ell 720, elapsed: 0.000743865966796875
ell 719, elapsed: 0.0006968975067138672
ell 718, elapsed: 0.0007290840148925781
ell 712, elapsed: 0.002171039581298828
ell 711, elapsed: 0.0007190704345703125
ell 710, elapsed: 0.0007040500640869141
ell 709, elapsed: 0.0007030963897705078
ell 708, elapsed: 0.0008578300476074219
ell 702, elapsed: 0.0019078254699707031
ell 701, elapsed: 0.0007219314575195312
ell 700, elapsed: 0.0009179115295410156
ell 699, elapsed: 0.0007450580596923828
ell 698, elapsed: 0.0006921291351318359
ell 692, elapsed: 0.001725912094116211
ell 691, elapsed: 0.0008840560913085938
ell 690, elapsed: 0.0006690025329589844
ell 689, elapsed: 0.0007429122924804688
ell 688, elapsed: 0.0007300376892089844
ell 682, elapsed: 0.0018749237060546875
ell 681, elapsed: 0.0007200241088867188
ell 680, elapsed: 0.0007340908050537109
ell 679, elapsed: 0.0007531642913818359
ell 678, elapsed: 0.0008499622344970703
ell 672, elapsed: 0.0018429756164550781
ell 671, elapsed: 0.0007109642028808594
ell 670, elapsed: 0.0006940364837646484
ell 669, elapsed: 0.0008780956268310547
ell 668, elapsed: 0.0007059574127197266
ell 662, elapsed: 0.0018270015716552734
ell 661, elapsed: 0.0009028911590576172
ell 660, elapsed: 0.000762939453125
ell 659, elapsed: 0.0007181167602539062
ell 658, elapsed: 0.0007619857788085938
ell 652, elapsed: 0.0021200180053710938
ell 651, elapsed: 0.0008227825164794922
ell 650, elapsed: 0.0007259845733642578
ell 649, elapsed: 0.0007071495056152344
ell 648, elapsed: 0.0009131431579589844
ell 642, elapsed: 0.001934051513671875
ell 641, elapsed: 0.0007569789886474609
ell 640, elapsed: 0.0008640289306640625
ell 639, elapsed: 0.0007109642028808594
ell 638, elapsed: 0.0007190704345703125
ell 632, elapsed: 0.002343893051147461
ell 631, elapsed: 0.0007960796356201172
ell 630, elapsed: 0.0007379055023193359
ell 629, elapsed: 0.000720977783203125
ell 628, elapsed: 0.0007009506225585938
ell 622, elapsed: 0.0019500255584716797
ell 621, elapsed: 0.0007381439208984375
ell 620, elapsed: 0.000682830810546875
ell 619, elapsed: 0.0008699893951416016
ell 618, elapsed: 0.0007679462432861328
ell 612, elapsed: 0.0019059181213378906
ell 611, elapsed: 0.0009450912475585938
ell 610, elapsed: 0.0007441043853759766
ell 609, elapsed: 0.00072479248046875
ell 608, elapsed: 0.0007860660552978516
ell 602, elapsed: 0.0022881031036376953
ell 601, elapsed: 0.0008189678192138672
ell 600, elapsed: 0.0007848739624023438
ell 599, elapsed: 0.0008490085601806641
ell 598, elapsed: 0.0007688999176025391
ell 592, elapsed: 0.0022308826446533203
ell 591, elapsed: 0.001004934310913086
ell 590, elapsed: 0.0008001327514648438
ell 589, elapsed: 0.0007071495056152344
ell 588, elapsed: 0.0006899833679199219
ell 582, elapsed: 0.0021288394927978516
ell 581, elapsed: 0.0007071495056152344
ell 580, elapsed: 0.0007138252258300781
ell 579, elapsed: 0.0007150173187255859
ell 578, elapsed: 0.0008320808410644531
ell 572, elapsed: 0.017323017120361328
ell 571, elapsed: 0.0009019374847412109
ell 570, elapsed: 0.0006940364837646484
ell 569, elapsed: 0.000720977783203125
ell 568, elapsed: 0.0006670951843261719
ell 562, elapsed: 0.001672983169555664
ell 561, elapsed: 0.0006780624389648438
ell 560, elapsed: 0.0007431507110595703
ell 559, elapsed: 0.0006849765777587891
ell 558, elapsed: 0.0006558895111083984
ell 552, elapsed: 0.0017390251159667969
ell 551, elapsed: 0.0007441043853759766
ell 550, elapsed: 0.0006558895111083984
ell 549, elapsed: 0.0006680488586425781
ell 548, elapsed: 0.0006639957427978516
ell 542, elapsed: 0.0017139911651611328
ell 541, elapsed: 0.0007059574127197266
ell 540, elapsed: 0.0006837844848632812
ell 539, elapsed: 0.0006320476531982422
ell 538, elapsed: 0.0006279945373535156
ell 532, elapsed: 0.0015628337860107422
ell 531, elapsed: 0.0006539821624755859
ell 530, elapsed: 0.0006318092346191406
ell 529, elapsed: 0.0006539821624755859
ell 528, elapsed: 0.0006968975067138672
ell 522, elapsed: 0.0016019344329833984
ell 521, elapsed: 0.0006389617919921875
ell 520, elapsed: 0.0006530284881591797
ell 519, elapsed: 0.0006871223449707031
ell 518, elapsed: 0.0006418228149414062
ell 512, elapsed: 0.0015058517456054688
ell 511, elapsed: 0.0006651878356933594
ell 510, elapsed: 0.0006880760192871094
ell 509, elapsed: 0.0006430149078369141
ell 508, elapsed: 0.0006461143493652344
ell 502, elapsed: 0.0016179084777832031
ell 501, elapsed: 0.0007200241088867188
ell 500, elapsed: 0.0006239414215087891
ell 499, elapsed: 0.0006442070007324219
ell 498, elapsed: 0.0006270408630371094
ell 492, elapsed: 0.0017099380493164062
ell 491, elapsed: 0.0006818771362304688
ell 490, elapsed: 0.0006618499755859375
ell 489, elapsed: 0.0006470680236816406
ell 488, elapsed: 0.0006592273712158203
ell 482, elapsed: 0.0017139911651611328
ell 481, elapsed: 0.0006442070007324219
ell 480, elapsed: 0.0006301403045654297
ell 479, elapsed: 0.0006380081176757812
ell 478, elapsed: 0.0006480216979980469
ell 472, elapsed: 0.0017480850219726562
ell 471, elapsed: 0.0007619857788085938
ell 470, elapsed: 0.0007691383361816406
ell 469, elapsed: 0.0008599758148193359
ell 468, elapsed: 0.0007519721984863281
ell 462, elapsed: 0.0018558502197265625
ell 461, elapsed: 0.0009670257568359375
ell 460, elapsed: 0.0007801055908203125
ell 459, elapsed: 0.0007920265197753906
ell 458, elapsed: 0.0007669925689697266
ell 452, elapsed: 0.002240896224975586
ell 451, elapsed: 0.00074005126953125
ell 450, elapsed: 0.0007741451263427734
ell 449, elapsed: 0.0007719993591308594
ell 448, elapsed: 0.0007548332214355469
ell 442, elapsed: 0.0019011497497558594
ell 441, elapsed: 0.0007040500640869141
ell 440, elapsed: 0.0007460117340087891
ell 439, elapsed: 0.0007069110870361328
ell 438, elapsed: 0.0006809234619140625
ell 432, elapsed: 0.001706838607788086
ell 431, elapsed: 0.0006878376007080078
ell 430, elapsed: 0.0006270408630371094
ell 429, elapsed: 0.0006070137023925781
ell 428, elapsed: 0.00061798095703125
ell 422, elapsed: 0.0017139911651611328
ell 421, elapsed: 0.00061798095703125
ell 420, elapsed: 0.0006558895111083984
ell 419, elapsed: 0.0006670951843261719
ell 418, elapsed: 0.0006480216979980469
ell 412, elapsed: 0.0016298294067382812
ell 411, elapsed: 0.0006208419799804688
ell 410, elapsed: 0.00061798095703125
ell 409, elapsed: 0.0006310939788818359
ell 408, elapsed: 0.0007700920104980469
ell 402, elapsed: 0.0015110969543457031
ell 401, elapsed: 0.0006399154663085938
ell 400, elapsed: 0.0006129741668701172
ell 399, elapsed: 0.0007309913635253906
ell 398, elapsed: 0.0006279945373535156
ell 392, elapsed: 0.0014879703521728516
ell 391, elapsed: 0.0006458759307861328
ell 390, elapsed: 0.0006341934204101562
ell 389, elapsed: 0.0007741451263427734
ell 388, elapsed: 0.0005998611450195312
ell 382, elapsed: 0.0015881061553955078
ell 381, elapsed: 0.0006411075592041016
ell 380, elapsed: 0.0009629726409912109
ell 379, elapsed: 0.0006220340728759766
ell 378, elapsed: 0.0006368160247802734
ell 372, elapsed: 0.0016009807586669922
ell 371, elapsed: 0.0008161067962646484
ell 370, elapsed: 0.0006949901580810547
ell 369, elapsed: 0.0006840229034423828
ell 368, elapsed: 0.0006759166717529297
ell 362, elapsed: 0.0017938613891601562
ell 361, elapsed: 0.0006461143493652344
ell 360, elapsed: 0.0006399154663085938
ell 359, elapsed: 0.0006659030914306641
ell 358, elapsed: 0.0006949901580810547
ell 352, elapsed: 0.0017168521881103516
ell 351, elapsed: 0.0006730556488037109
ell 350, elapsed: 0.0006449222564697266
ell 349, elapsed: 0.0007970333099365234
ell 348, elapsed: 0.0006859302520751953
ell 342, elapsed: 0.0016169548034667969
ell 341, elapsed: 0.0006589889526367188
ell 340, elapsed: 0.0007810592651367188
ell 339, elapsed: 0.0006449222564697266
ell 338, elapsed: 0.0006330013275146484
ell 332, elapsed: 0.0015900135040283203
ell 331, elapsed: 0.0007879734039306641
ell 330, elapsed: 0.0007059574127197266
ell 329, elapsed: 0.0007300376892089844
ell 328, elapsed: 0.0007569789886474609
ell 322, elapsed: 0.002125978469848633
ell 321, elapsed: 0.0008101463317871094
ell 320, elapsed: 0.0007531642913818359
ell 319, elapsed: 0.0007472038269042969
ell 318, elapsed: 0.0009601116180419922
ell 312, elapsed: 0.0017740726470947266
ell 311, elapsed: 0.0006809234619140625
ell 310, elapsed: 0.0006392002105712891
ell 309, elapsed: 0.0006239414215087891
ell 308, elapsed: 0.0006361007690429688
ell 302, elapsed: 0.0015840530395507812
ell 301, elapsed: 0.0007269382476806641
ell 300, elapsed: 0.0007121562957763672
ell 299, elapsed: 0.0006530284881591797
ell 298, elapsed: 0.0006279945373535156
ell 292, elapsed: 0.001550912857055664
ell 291, elapsed: 0.0006721019744873047
ell 290, elapsed: 0.0006680488586425781
ell 289, elapsed: 0.0006499290466308594
ell 288, elapsed: 0.0006530284881591797
ell 282, elapsed: 0.0016951560974121094
ell 281, elapsed: 0.0006561279296875
ell 280, elapsed: 0.0006351470947265625
ell 279, elapsed: 0.0006470680236816406
ell 278, elapsed: 0.0006399154663085938
ell 272, elapsed: 0.0017249584197998047
ell 271, elapsed: 0.0007021427154541016
ell 270, elapsed: 0.0006630420684814453
ell 269, elapsed: 0.0006639957427978516
ell 268, elapsed: 0.0008180141448974609
ell 262, elapsed: 0.0018291473388671875
ell 261, elapsed: 0.000659942626953125
ell 260, elapsed: 0.0007531642913818359
ell 259, elapsed: 0.0006940364837646484
ell 258, elapsed: 0.0007088184356689453
ell 252, elapsed: 0.0018210411071777344
ell 251, elapsed: 0.000885009765625
ell 250, elapsed: 0.0007040500640869141
ell 249, elapsed: 0.0006978511810302734
ell 248, elapsed: 0.0006911754608154297
ell 242, elapsed: 0.0019948482513427734
ell 241, elapsed: 0.0007138252258300781
ell 240, elapsed: 0.0006949901580810547
ell 239, elapsed: 0.0006868839263916016
ell 238, elapsed: 0.0008378028869628906
ell 232, elapsed: 0.0018761157989501953
ell 231, elapsed: 0.0006949901580810547
ell 230, elapsed: 0.0006611347198486328
ell 229, elapsed: 0.0008170604705810547
ell 228, elapsed: 0.0006358623504638672
ell 222, elapsed: 0.0015060901641845703
ell 221, elapsed: 0.0006461143493652344
ell 220, elapsed: 0.0007739067077636719
ell 219, elapsed: 0.0006299018859863281
ell 218, elapsed: 0.0006570816040039062
ell 212, elapsed: 0.001744985580444336
ell 211, elapsed: 0.0008409023284912109
ell 210, elapsed: 0.0006730556488037109
ell 209, elapsed: 0.0006010532379150391
ell 208, elapsed: 0.0005970001220703125
ell 202, elapsed: 0.0016629695892333984
ell 201, elapsed: 0.0006549358367919922
ell 200, elapsed: 0.0006170272827148438
ell 199, elapsed: 0.0006229877471923828
ell 198, elapsed: 0.0006330013275146484
ell 192, elapsed: 0.0016131401062011719
ell 191, elapsed: 0.0006117820739746094
ell 190, elapsed: 0.0006151199340820312
ell 189, elapsed: 0.0005948543548583984
ell 188, elapsed: 0.0005929470062255859
ell 182, elapsed: 0.0015339851379394531
ell 181, elapsed: 0.0006310939788818359
ell 180, elapsed: 0.0006170272827148438
ell 179, elapsed: 0.0006258487701416016
ell 178, elapsed: 0.0006449222564697266
ell 172, elapsed: 0.0017130374908447266
ell 171, elapsed: 0.0006310939788818359
ell 170, elapsed: 0.0006270408630371094
ell 169, elapsed: 0.0006899833679199219
ell 168, elapsed: 0.0006711483001708984
ell 162, elapsed: 0.0016291141510009766
ell 161, elapsed: 0.0006821155548095703
ell 160, elapsed: 0.0007719993591308594
ell 159, elapsed: 0.000675201416015625
ell 158, elapsed: 0.0006198883056640625
ell 152, elapsed: 0.0014941692352294922
ell 151, elapsed: 0.0007379055023193359
ell 150, elapsed: 0.0006380081176757812
ell 149, elapsed: 0.0006151199340820312
ell 148, elapsed: 0.0006010532379150391
ell 142, elapsed: 0.0015330314636230469
ell 141, elapsed: 0.0007431507110595703
ell 140, elapsed: 0.0006110668182373047
ell 139, elapsed: 0.0006659030914306641
ell 138, elapsed: 0.0006241798400878906
ell 132, elapsed: 0.001725912094116211
ell 131, elapsed: 0.0006940364837646484
ell 130, elapsed: 0.0006728172302246094
ell 129, elapsed: 0.000720977783203125
ell 128, elapsed: 0.0007607936859130859
ell 122, elapsed: 0.0018570423126220703
ell 121, elapsed: 0.0006420612335205078
ell 120, elapsed: 0.0006170272827148438
ell 119, elapsed: 0.0006101131439208984
ell 118, elapsed: 0.0007610321044921875
ell 112, elapsed: 0.00150299072265625
ell 111, elapsed: 0.0006859302520751953
ell 110, elapsed: 0.0006761550903320312
ell 109, elapsed: 0.0009138584136962891
ell 108, elapsed: 0.000701904296875
ell 102, elapsed: 0.0017559528350830078
ell 101, elapsed: 0.0026640892028808594
ell 100, elapsed: 0.0025048255920410156
ell 99, elapsed: 0.0023488998413085938
ell 98, elapsed: 0.0026710033416748047
ell 92, elapsed: 0.0053980350494384766
ell 91, elapsed: 0.0026650428771972656
ell 90, elapsed: 0.002393007278442383
ell 89, elapsed: 0.002379179000854492
ell 88, elapsed: 0.002360105514526367
ell 82, elapsed: 0.005239009857177734
ell 81, elapsed: 0.00415802001953125
ell 80, elapsed: 0.0037751197814941406
ell 79, elapsed: 0.0036110877990722656
ell 78, elapsed: 0.0023260116577148438
ell 72, elapsed: 0.0048830509185791016
ell 71, elapsed: 0.002331972122192383
ell 70, elapsed: 0.002292156219482422
ell 69, elapsed: 0.002401113510131836
ell 68, elapsed: 0.0025670528411865234
ell 62, elapsed: 0.005177021026611328
ell 61, elapsed: 0.0023889541625976562
ell 60, elapsed: 0.0023670196533203125
ell 59, elapsed: 0.0023839473724365234
ell 58, elapsed: 0.0023729801177978516
ell 52, elapsed: 0.004981040954589844
ell 51, elapsed: 0.0024080276489257812
ell 50, elapsed: 0.0024099349975585938
ell 49, elapsed: 0.0023851394653320312
ell 48, elapsed: 0.002337932586669922
ell 42, elapsed: 0.005217790603637695
ell 41, elapsed: 0.002457141876220703
ell 40, elapsed: 0.0025370121002197266
ell 39, elapsed: 0.0024709701538085938
ell 38, elapsed: 0.0024650096893310547
ell 32, elapsed: 0.005298137664794922
ell 31, elapsed: 0.0024030208587646484
ell 30, elapsed: 0.0023698806762695312
ell 29, elapsed: 0.002335071563720703
ell 28, elapsed: 0.0024080276489257812
ell 22, elapsed: 0.004976034164428711
ell 21, elapsed: 0.002371072769165039
ell 20, elapsed: 0.002307891845703125
ell 19, elapsed: 0.0023241043090820312
ell 18, elapsed: 0.002293109893798828
ell 12, elapsed: 0.0049479007720947266
ell 11, elapsed: 0.0022780895233154297
ell 10, elapsed: 0.002321958541870117
ell 9, elapsed: 0.0023479461669921875
ell 8, elapsed: 0.0023179054260253906
  0.735491 seconds (69.52 k allocations: 11.993 MiB, 2.14% gc time)
elapsed: 0.003245115280151367
step:          0.052845 sec (0 allocations: 0 byte, 0.0% gc time)
swapping:      0.001405 sec (0 allocations: 0 byte, 0.0% gc time)
calc_Mellell!: 0.024461 sec (0 allocations: 0 byte, 0.0% gc time)
  t0 :  0.012387 sec (0 allocations: 0 byte, 0.0% gc time)
  tm2 : 0.060508 sec (0 allocations: 0 byte, 0.0% gc time)
  tm2s: 0.010612 sec (0 allocations: 0 byte, 0.0% gc time)
  tm4 : 0.139596 sec (0 allocations: 0 byte, 0.0% gc time)
  tp2 : 0.0 sec (0 allocations: 0 byte, 0.0% gc time)
  tp2s: 0.0 sec (0 allocations: 0 byte, 0.0% gc time)
  tp4 : 0.0 sec (0 allocations: 0 byte, 0.0% gc time)
calc_wtdll!:   0.446966 sec (49.203 k allocations: 11.133 MB, 3.52% gc time)
calc_wljj!:    0.037173 sec (69 allocations: 1.078 KB, 0.0% gc time)
mult_prefac!:  0.0 sec (0 allocations: 0 byte, 0.0% gc time)
convert:       0.0 sec (0 allocations: 0 byte, 0.0% gc time)
write:         0.090303 sec (0 allocations: 0 byte, 0.0% gc time)
test_rand_2f1: 0.0 sec (0 allocations: 0 byte, 0.0% gc time)
Closing outfile out/MlCache/MlCache.bin...   0.000013 seconds
xi, l=0, nu=0:   0.318253 seconds (209.16 k allocations: 10.249 MiB, 6.74% gc time)
xi, l=0, nu=-2:  0.001841 seconds (173 allocations: 150.516 KiB)
Created 'out/xi.tsv'.
  q=1.1, R=0.6:	  1.204302 seconds (479.50 k allocations: 177.795 MiB, 5.28% gc time)
  q=1.1, R=0.7:	  0.949028 seconds (501.06 k allocations: 186.053 MiB, 4.71% gc time)
  q=1.1, R=0.8:	  0.826191 seconds (492.78 k allocations: 182.871 MiB, 9.47% gc time)
  q=1.1, R=0.9:	  0.900623 seconds (483.27 k allocations: 179.238 MiB, 6.06% gc time)
  q=1.1, R=0.998:	 19.629569 seconds (10.70 M allocations: 832.779 MiB, 0.77% gc time)
  q=1.1, R=1.0:	  0.015150 seconds (32.27 k allocations: 9.559 MiB)

ℓ = 1000
Δℓ = 4
ΔℓRg1 = -4
N = 4096
q = 1.1
kmin = 1.0e-5
kmax = 1000.0
χ0 = 0.001
RR = RR.tsv
ℓmax = ℓmax.bin
f21 = f21.bin
kmin = 1.0e-5
kmax = 1000.0
dlrec    = 4
dlrecRg1 = -4
Output size: 1573632 bytes = 0.0014655590057373047 GiB
Output size: 786816 bytes = 0.0007327795028686523 GiB
Reading 'out/F21EllCache'...   0.001255 seconds (349 allocations: 534.594 KiB)
ellmax: 1002
lmaxcache: 1000
fell[:,1,1] = Complex{Float64}[1.72629e-224-4.2282e-240im, 1.72827e-224-4.23304e-240im]
ell 1002, elapsed: 0.00011110305786132812
ell 1001, elapsed: 0.0006821155548095703
ell 1000, elapsed: 0.0007631778717041016
ell 999, elapsed: 0.0040090084075927734
ell 998, elapsed: 0.004269838333129883
ell 44, elapsed: 0.6185760498046875
ell 43, elapsed: 0.004144906997680664
ell 42, elapsed: 0.003960847854614258
ell 41, elapsed: 0.004075050354003906
ell 40, elapsed: 0.0039250850677490234
  0.652156 seconds (4.58 k allocations: 317.078 KiB)
elapsed: 0.006111860275268555
step:          0.613871 sec (0 allocations: 0 byte, 0.0% gc time)
swapping:      0.00101 sec (0 allocations: 0 byte, 0.0% gc time)
calc_Mellell!: 0.000943 sec (0 allocations: 0 byte, 0.0% gc time)
  t0 :  0.000664 sec (0 allocations: 0 byte, 0.0% gc time)
  tm2 : 0.007929 sec (0 allocations: 0 byte, 0.0% gc time)
  tm2s: 0.000533 sec (0 allocations: 0 byte, 0.0% gc time)
  tm4 : 0.017262 sec (0 allocations: 0 byte, 0.0% gc time)
  tp2 : 0.0 sec (0 allocations: 0 byte, 0.0% gc time)
  tp2s: 0.0 sec (0 allocations: 0 byte, 0.0% gc time)
  tp4 : 0.0 sec (0 allocations: 0 byte, 0.0% gc time)
calc_wtdll!:   0.026712 sec (480 allocations: 52.5 KB, 0.0% gc time)
calc_wljj!:    0.001196 sec (1 allocations: 16 byte, 0.0% gc time)
mult_prefac!:  0.0 sec (0 allocations: 0 byte, 0.0% gc time)
convert:       0.0 sec (0 allocations: 0 byte, 0.0% gc time)
write:         0.002093 sec (0 allocations: 0 byte, 0.0% gc time)
test_rand_2f1: 0.0 sec (0 allocations: 0 byte, 0.0% gc time)
Closing outfile out/MlCache/MlCache.bin...   0.000586 seconds
  0.404572 seconds (55 allocations: 67.281 KiB)
make_phi():   0.007572 seconds (89 allocations: 276.609 KiB)
  0.002410 seconds (108 allocations: 5.813 KiB)
tskip:       0.0 sec (0 allocations: 0 byte, 0.0% gc time)
tread:       0.000603 sec (10 allocations: 928 byte, 0.0% gc time)
tmultphi:    0.000218 sec (0 allocations: 0 byte, 0.0% gc time)
tbrfft:      0.0012 sec (96 allocations: 4.5 KB, 0.0% gc time)
tmultprefac: 0.00042 sec (0 allocations: 0 byte, 0.0% gc time)
toutfunc:    8.9e-5 sec (0 allocations: 0 byte, 0.0% gc time)
Created 'out/wl42_jj00.tsv'.
Created 'out/wl42_jj02.tsv'.
   Testing TwoFAST tests passed 
