 Resolving package versions...
 Installed Reexport ───────── v0.2.0
 Installed Parsers ────────── v0.3.10
 Installed IncGammaBeta ───── v0.1.0
 Installed AbstractFFTs ───── v0.5.0
 Installed Compat ─────────── v2.2.0
 Installed FFTW ───────────── v1.1.0
 Installed Nemo ───────────── v0.15.1
 Installed VersionParsing ─── v1.1.3
 Installed Conda ──────────── v1.3.0
 Installed JSON ───────────── v0.21.0
 Installed BinaryProvider ─── v0.5.8
 Installed SpecialFunctions ─ v0.8.0
 Installed BinDeps ────────── v0.8.10
 Installed AbstractAlgebra ── v0.7.1
 Installed URIParser ──────── v0.4.0
 Installed TwoFAST ────────── v0.1.0
  Updating `~/.julia/environments/v1.2/Project.toml`
  [0dd23c3e] + TwoFAST v0.1.0
  Updating `~/.julia/environments/v1.2/Manifest.toml`
  [c3fe647b] + AbstractAlgebra v0.7.1
  [621f4979] + AbstractFFTs v0.5.0
  [9e28174c] + BinDeps v0.8.10
  [b99e7846] + BinaryProvider v0.5.8
  [34da2185] + Compat v2.2.0
  [8f4d0f93] + Conda v1.3.0
  [7a1cc6ca] + FFTW v1.1.0
  [5087d2c0] + IncGammaBeta v0.1.0
  [682c06a0] + JSON v0.21.0
  [2edaba10] + Nemo v0.15.1
  [69de0a69] + Parsers v0.3.10
  [189a3867] + Reexport v0.2.0
  [276daf66] + SpecialFunctions v0.8.0
  [0dd23c3e] + TwoFAST v0.1.0
  [30578b45] + URIParser v0.4.0
  [81def892] + VersionParsing v1.1.3
  [2a0f44e3] + Base64 
  [ade2ca70] + Dates 
  [8bb1440f] + DelimitedFiles 
  [8ba89e20] + Distributed 
  [b77e0a4c] + InteractiveUtils 
  [76f85450] + LibGit2 
  [8f399da3] + Libdl 
  [37e2e46d] + LinearAlgebra 
  [56ddb016] + Logging 
  [d6f4376e] + Markdown 
  [a63ad114] + Mmap 
  [44cfe95a] + Pkg 
  [de0858da] + Printf 
  [3fa0cd96] + REPL 
  [9a3f8284] + Random 
  [ea8e919c] + SHA 
  [9e88b42a] + Serialization 
  [1a1011a3] + SharedArrays 
  [6462fe0b] + Sockets 
  [2f01184e] + SparseArrays 
  [10745b16] + Statistics 
  [8dfed614] + Test 
  [cf7118a7] + UUIDs 
  [4ec0a83e] + Unicode 
  Building Conda ───────────→ `~/.julia/packages/Conda/kLXeC/deps/build.log`
  Building FFTW ────────────→ `~/.julia/packages/FFTW/loJ3F/deps/build.log`
  Building Nemo ────────────→ `~/.julia/packages/Nemo/qzx0m/deps/build.log`
  Building SpecialFunctions → `~/.julia/packages/SpecialFunctions/ne2iw/deps/build.log`
   Testing TwoFAST
 Resolving package versions...
 Installed Dierckx ─ v0.4.1
  Building Dierckx → `~/.julia/packages/Dierckx/9SY4A/deps/build.log`
    Status `/tmp/jl_LX2Rmf/Manifest.toml`
  [c3fe647b] AbstractAlgebra v0.7.1
  [621f4979] AbstractFFTs v0.5.0
  [9e28174c] BinDeps v0.8.10
  [b99e7846] BinaryProvider v0.5.8
  [34da2185] Compat v2.2.0
  [8f4d0f93] Conda v1.3.0
  [39dd38d3] Dierckx v0.4.1
  [7a1cc6ca] FFTW v1.1.0
  [5087d2c0] IncGammaBeta v0.1.0
  [682c06a0] JSON v0.21.0
  [2edaba10] Nemo v0.15.1
  [69de0a69] Parsers v0.3.10
  [189a3867] Reexport v0.2.0
  [276daf66] SpecialFunctions v0.8.0
  [0dd23c3e] TwoFAST v0.1.0
  [30578b45] URIParser v0.4.0
  [81def892] VersionParsing v1.1.3
  [2a0f44e3] Base64  [`@stdlib/Base64`]
  [ade2ca70] Dates  [`@stdlib/Dates`]
  [8bb1440f] DelimitedFiles  [`@stdlib/DelimitedFiles`]
  [8ba89e20] Distributed  [`@stdlib/Distributed`]
  [b77e0a4c] InteractiveUtils  [`@stdlib/InteractiveUtils`]
  [76f85450] LibGit2  [`@stdlib/LibGit2`]
  [8f399da3] Libdl  [`@stdlib/Libdl`]
  [37e2e46d] LinearAlgebra  [`@stdlib/LinearAlgebra`]
  [56ddb016] Logging  [`@stdlib/Logging`]
  [d6f4376e] Markdown  [`@stdlib/Markdown`]
  [a63ad114] Mmap  [`@stdlib/Mmap`]
  [44cfe95a] Pkg  [`@stdlib/Pkg`]
  [de0858da] Printf  [`@stdlib/Printf`]
  [3fa0cd96] REPL  [`@stdlib/REPL`]
  [9a3f8284] Random  [`@stdlib/Random`]
  [ea8e919c] SHA  [`@stdlib/SHA`]
  [9e88b42a] Serialization  [`@stdlib/Serialization`]
  [1a1011a3] SharedArrays  [`@stdlib/SharedArrays`]
  [6462fe0b] Sockets  [`@stdlib/Sockets`]
  [2f01184e] SparseArrays  [`@stdlib/SparseArrays`]
  [10745b16] Statistics  [`@stdlib/Statistics`]
  [8dfed614] Test  [`@stdlib/Test`]
  [cf7118a7] UUIDs  [`@stdlib/UUIDs`]
  [4ec0a83e] Unicode  [`@stdlib/Unicode`]

Welcome to Nemo version 0.15.1

Nemo comes with absolutely no warranty whatsoever


Welcome to Nemo version 0.15.1

Nemo comes with absolutely no warranty whatsoever

Testing ξ(r), ℓ=0, ν=-1 ... passed
Testing ξ(r), ℓ=0, ν=0 ... passed
Testing ξ(r), ℓ=0, ν=1 ... passed
Testing ξ(r), ℓ=0, ν=2 ... passed
Testing ξ(r), ℓ=0, ν=3 ... passed
Testing ξ(r), ℓ=1, ν=0 ... passed
Testing ξ(r), ℓ=1, ν=1 ... passed
Testing ξ(r), ℓ=1, ν=2 ... passed
Testing ξ(r), ℓ=1, ν=3 ... passed
Testing ξ(r), ℓ=2, ν=-1 ... passed
Testing ξ(r), ℓ=2, ν=0 ... passed
Testing ξ(r), ℓ=2, ν=1 ... passed
Testing ξ(r), ℓ=2, ν=2 ... passed
Testing ξ(r), ℓ=2, ν=3 ... passed
Testing ξ(r), ℓ=3, ν=-1 ... passed
Testing ξ(r), ℓ=3, ν=0 ... passed
Testing ξ(r), ℓ=3, ν=1 ... passed
Testing ξ(r), ℓ=3, ν=2 ... passed
Testing ξ(r), ℓ=3, ν=3 ... passed
Testing ξ(r), ℓ=4, ν=-1 ... passed
Testing ξ(r), ℓ=4, ν=0 ... passed
Testing ξ(r), ℓ=4, ν=1 ... passed
Testing ξ(r), ℓ=4, ν=2 ... passed
Testing ξ(r), ℓ=4, ν=3 ... passed
Testing ξ(r) ... passed
Testing ξ′(r) ... passed
Testing ξ″(r) ... passed
Calculating fmax: 
  dlrec    = 4
  dlrecRg1 = -4
  q=1.1, R=1.1:	  3.603692 seconds (1.19 M allocations: 124.057 MiB, 1.88% gc time)

  3.632272 seconds (1.19 M allocations: 124.340 MiB, 1.87% gc time)
ℓ = 1202
Δℓ = 4
ΔℓRg1 = -4
N = 1600
q = 1.1
kmin = 1.0e-5
kmax = 100000.00000000004
χ0 = 0.023029999999999995
RR = RR.tsv
ℓmax = ℓmax.bin
f21 = f21.bin
kmin = 1.0e-5
kmax = 100000.0
dlrec    = 4
dlrecRg1 = -4
Output size: 5741568 bytes = 0.005347251892089844 GiB
Output size: 51264 bytes = 4.774332046508789e-5 GiB
Reading 'out/F21EllCache'...   0.569259 seconds (512.89 k allocations: 27.007 MiB, 3.79% gc time)
ellmax: 1202
lmaxcache: 1202
fell[:,1,1] = Complex{Float64}[3.9583795592771634e-52 - 9.695233714158177e-68im, 3.990121772925759e-52 - 9.772979714843386e-68im]
ell 1202, elapsed: 0.0029578208923339844
ell 1201, elapsed: 2.0592520236968994
ell 1200, elapsed: 0.0005300045013427734
ell 1199, elapsed: 0.0005669593811035156
ell 1198, elapsed: 0.0003628730773925781
ell 1002, elapsed: 0.007545948028564453
ell 1001, elapsed: 0.00036597251892089844
ell 1000, elapsed: 0.00033092498779296875
ell 999, elapsed: 0.0003349781036376953
ell 998, elapsed: 0.00032520294189453125
ell 902, elapsed: 0.0038878917694091797
ell 901, elapsed: 0.0003840923309326172
ell 900, elapsed: 0.0004661083221435547
ell 899, elapsed: 0.00035309791564941406
ell 898, elapsed: 0.0003509521484375
ell 802, elapsed: 0.004296064376831055
ell 801, elapsed: 0.00035691261291503906
ell 800, elapsed: 0.0003368854522705078
ell 799, elapsed: 0.00034689903259277344
ell 798, elapsed: 0.0003399848937988281
ell 702, elapsed: 0.003938913345336914
ell 701, elapsed: 0.00034117698669433594
ell 700, elapsed: 0.00035309791564941406
ell 699, elapsed: 0.0003399848937988281
ell 698, elapsed: 0.0003371238708496094
ell 602, elapsed: 0.004055023193359375
ell 601, elapsed: 0.0003769397735595703
ell 600, elapsed: 0.00034117698669433594
ell 599, elapsed: 0.00034308433532714844
ell 598, elapsed: 0.00035309791564941406
ell 502, elapsed: 0.00397801399230957
ell 501, elapsed: 0.0003719329833984375
ell 500, elapsed: 0.0003459453582763672
ell 499, elapsed: 0.0004038810729980469
ell 498, elapsed: 0.00034499168395996094
ell 402, elapsed: 0.004045009613037109
ell 401, elapsed: 0.00037407875061035156
ell 400, elapsed: 0.00033783912658691406
ell 399, elapsed: 0.00034308433532714844
ell 398, elapsed: 0.000347137451171875
ell 302, elapsed: 0.003973960876464844
ell 301, elapsed: 0.0003600120544433594
ell 300, elapsed: 0.00035500526428222656
ell 299, elapsed: 0.00035309791564941406
ell 298, elapsed: 0.0004279613494873047
ell 202, elapsed: 0.0041370391845703125
ell 201, elapsed: 0.00038504600524902344
ell 200, elapsed: 0.00033593177795410156
ell 199, elapsed: 0.0003352165222167969
ell 198, elapsed: 0.00035309791564941406
ell 152, elapsed: 0.002165079116821289
ell 151, elapsed: 0.00036907196044921875
ell 150, elapsed: 0.00035500526428222656
ell 149, elapsed: 0.00034999847412109375
ell 148, elapsed: 0.0003418922424316406
ell 127, elapsed: 0.001216888427734375
ell 126, elapsed: 0.00034999847412109375
ell 125, elapsed: 0.00040411949157714844
ell 124, elapsed: 0.00034499168395996094
ell 123, elapsed: 0.00034308433532714844
ell 114, elapsed: 0.0006630420684814453
ell 113, elapsed: 0.0003418922424316406
ell 112, elapsed: 0.00034499168395996094
ell 111, elapsed: 0.00034809112548828125
ell 110, elapsed: 0.0003490447998046875
ell 102, elapsed: 0.0008330345153808594
ell 101, elapsed: 0.0003609657287597656
ell 100, elapsed: 0.0003609657287597656
ell 99, elapsed: 0.0003619194030761719
ell 98, elapsed: 0.00035691261291503906
ell 97, elapsed: 0.00039505958557128906
ell 96, elapsed: 0.0005362033843994141
ell 95, elapsed: 0.00037407875061035156
ell 94, elapsed: 0.0005791187286376953
ell 93, elapsed: 0.00038886070251464844
ell 92, elapsed: 0.000492095947265625
ell 91, elapsed: 0.00039505958557128906
ell 90, elapsed: 0.00047707557678222656
ell 89, elapsed: 0.00037288665771484375
ell 88, elapsed: 0.0004680156707763672
ell 87, elapsed: 0.00036406517028808594
ell 86, elapsed: 0.0005578994750976562
ell 85, elapsed: 0.0003540515899658203
ell 84, elapsed: 0.00043511390686035156
ell 83, elapsed: 0.000347137451171875
ell 82, elapsed: 0.00043511390686035156
ell 81, elapsed: 0.0003440380096435547
ell 80, elapsed: 0.0004210472106933594
ell 79, elapsed: 0.0003440380096435547
ell 78, elapsed: 0.0005779266357421875
ell 77, elapsed: 0.0003559589385986328
ell 76, elapsed: 0.0004420280456542969
ell 75, elapsed: 0.00034618377685546875
ell 74, elapsed: 0.0004360675811767578
ell 73, elapsed: 0.00034689903259277344
ell 72, elapsed: 0.00043487548828125
ell 71, elapsed: 0.0003490447998046875
ell 70, elapsed: 0.0004379749298095703
ell 69, elapsed: 0.00037384033203125
ell 68, elapsed: 0.00048804283142089844
ell 67, elapsed: 0.000392913818359375
ell 66, elapsed: 0.00046896934509277344
ell 65, elapsed: 0.000370025634765625
ell 64, elapsed: 0.00045490264892578125
ell 63, elapsed: 0.0003600120544433594
ell 62, elapsed: 0.0004470348358154297
ell 61, elapsed: 0.0003581047058105469
ell 60, elapsed: 0.0004429817199707031
ell 59, elapsed: 0.0003590583801269531
ell 58, elapsed: 0.0004420280456542969
ell 57, elapsed: 0.0003669261932373047
ell 56, elapsed: 0.0004940032958984375
ell 55, elapsed: 0.0004138946533203125
ell 54, elapsed: 0.0004940032958984375
ell 53, elapsed: 0.0003788471221923828
ell 52, elapsed: 0.0004730224609375
ell 51, elapsed: 0.00037217140197753906
ell 50, elapsed: 0.0004508495330810547
ell 49, elapsed: 0.0003609657287597656
ell 48, elapsed: 0.0004439353942871094
ell 47, elapsed: 0.00035500526428222656
ell 46, elapsed: 0.00044417381286621094
ell 45, elapsed: 0.0003769397735595703
ell 44, elapsed: 0.0004410743713378906
ell 43, elapsed: 0.0003540515899658203
ell 42, elapsed: 0.0004420280456542969
ell 41, elapsed: 0.00039005279541015625
ell 40, elapsed: 0.0004432201385498047
ell 39, elapsed: 0.000370025634765625
ell 38, elapsed: 0.0004849433898925781
ell 37, elapsed: 0.00036597251892089844
ell 36, elapsed: 0.0004889965057373047
ell 35, elapsed: 0.0003800392150878906
ell 34, elapsed: 0.0004711151123046875
ell 33, elapsed: 0.0003838539123535156
ell 32, elapsed: 0.0004949569702148438
ell 31, elapsed: 0.00039005279541015625
ell 30, elapsed: 0.0005791187286376953
ell 29, elapsed: 0.00038886070251464844
ell 28, elapsed: 0.0004818439483642578
ell 27, elapsed: 0.00038695335388183594
ell 26, elapsed: 0.0004990100860595703
ell 25, elapsed: 0.00038909912109375
ell 24, elapsed: 0.0004799365997314453
ell 23, elapsed: 0.00038504600524902344
ell 22, elapsed: 0.0005350112915039062
ell 21, elapsed: 0.00038695335388183594
ell 20, elapsed: 0.0004780292510986328
ell 19, elapsed: 0.00036597251892089844
ell 18, elapsed: 0.0004668235778808594
ell 17, elapsed: 0.0003662109375
ell 16, elapsed: 0.00047707557678222656
ell 15, elapsed: 0.0004048347473144531
ell 14, elapsed: 0.00047779083251953125
ell 13, elapsed: 0.00036406517028808594
ell 12, elapsed: 0.0004780292510986328
ell 11, elapsed: 0.0003638267517089844
ell 10, elapsed: 0.00043702125549316406
ell 9, elapsed: 0.0003590583801269531
ell 8, elapsed: 0.00045299530029296875
ell 7, elapsed: 0.0003719329833984375
ell 6, elapsed: 0.0004680156707763672
ell 5, elapsed: 0.00036716461181640625
ell 4, elapsed: 0.00045990943908691406
ell 3, elapsed: 0.00037097930908203125
ell 2, elapsed: 0.0004730224609375
ell 1, elapsed: 0.0003681182861328125
ell 0, elapsed: 0.0004570484161376953
  2.273130 seconds (1.77 M allocations: 89.269 MiB, 2.78% gc time)
elapsed: 0.0005998611450195312
step:          0.638035 sec (569.18 k allocations: 29.199 MB, 3.13% gc time)
swapping:      0.000366 sec (0 allocations: 0 byte, 0.0% gc time)
calc_Mellell!: 0.490333 sec (390.683 k allocations: 19.805 MB, 2.71% gc time)
  t0 :  0.0 sec (0 allocations: 0 byte, 0.0% gc time)
  tm2 : 0.0 sec (0 allocations: 0 byte, 0.0% gc time)
  tm2s: 0.0 sec (0 allocations: 0 byte, 0.0% gc time)
  tm4 : 0.0 sec (0 allocations: 0 byte, 0.0% gc time)
  tp2 : 0.0 sec (0 allocations: 0 byte, 0.0% gc time)
  tp2s: 0.0 sec (0 allocations: 0 byte, 0.0% gc time)
  tp4 : 0.0 sec (0 allocations: 0 byte, 0.0% gc time)
calc_wtdll!:   1.023829 sec (705.271 k allocations: 35.333 MB, 2.92% gc time)
calc_wljj!:    0.002082 sec (6 allocations: 96 byte, 0.0% gc time)
mult_prefac!:  0.0 sec (0 allocations: 0 byte, 0.0% gc time)
convert:       0.0 sec (0 allocations: 0 byte, 0.0% gc time)
write:         0.005925 sec (0 allocations: 0 byte, 0.0% gc time)
test_rand_2f1: 0.0 sec (0 allocations: 0 byte, 0.0% gc time)
Closing outfile out/Ml21-cache.bin...   0.000148 seconds
  0.909204 seconds (202.33 k allocations: 9.775 MiB, 1.35% gc time)
make_phi():   0.008799 seconds (8.20 k allocations: 238.250 KiB)
  0.166312 seconds (142.37 k allocations: 7.100 MiB)
tskip:       1.9e-5 sec (0 allocations: 0 byte, 0.0% gc time)
tread:       0.001811 sec (15 allocations: 2.062 KB, 0.0% gc time)
tmultphi:    0.03414 sec (29.538 k allocations: 1.547 MB, 0.0% gc time)
tbrfft:      0.003366 sec (896 allocations: 42.0 KB, 0.0% gc time)
tmultprefac: 0.001369 sec (0 allocations: 0 byte, 0.0% gc time)
toutfunc:    0.12562 sec (111.264 k allocations: 5.44 MB, 0.0% gc time)
Testing R=1.1 ... passed
Calculating fmax: 
  dlrec    = 4
  dlrecRg1 = -4
  q=1.1, R=1.0:	  0.011677 seconds (4.81 k allocations: 3.569 MiB)

  0.012153 seconds (4.87 k allocations: 3.601 MiB)
ℓ = 1202
Δℓ = 4
ΔℓRg1 = -4
N = 1600
q = 1.1
kmin = 1.0e-5
kmax = 100000.00000000004
χ0 = 0.023029999999999995
RR = RR.tsv
ℓmax = ℓmax.bin
f21 = f21.bin
kmin = 1.0e-5
kmax = 100000.0
dlrec    = 4
dlrecRg1 = -4
Output size: 61465536 bytes = 0.05724424123764038 GiB
Output size: 51264 bytes = 4.774332046508789e-5 GiB
Reading 'out/F21EllCache'...   0.001164 seconds (251 allocations: 84.219 KiB)
ellmax: 1202
lmaxcache: 1202
fell[:,1,1] = Complex{Float64}[809.6031528389767 - 1.9829558194077161e-13im, 0.0 + 0.0im]
ell 1202, elapsed: 6.508827209472656e-5
ell 1201, elapsed: 0.013137102127075195
ell 1200, elapsed: 0.00036907196044921875
ell 1199, elapsed: 0.0003120899200439453
ell 1198, elapsed: 0.0002911090850830078
ell 1197, elapsed: 0.0003619194030761719
ell 1196, elapsed: 0.00030112266540527344
ell 1195, elapsed: 0.0004601478576660156
ell 1194, elapsed: 0.00032210350036621094
ell 1193, elapsed: 0.0004630088806152344
ell 1192, elapsed: 0.00033020973205566406
ell 1191, elapsed: 0.0004649162292480469
ell 1190, elapsed: 0.00031304359436035156
ell 1189, elapsed: 0.0004792213439941406
ell 1188, elapsed: 0.00042319297790527344
ell 1187, elapsed: 0.0005269050598144531
ell 1186, elapsed: 0.00032401084899902344
ell 1185, elapsed: 0.0004699230194091797
ell 1184, elapsed: 0.0003380775451660156
ell 1183, elapsed: 0.0005280971527099609
ell 1182, elapsed: 0.0004971027374267578
ell 1181, elapsed: 0.0005550384521484375
ell 1180, elapsed: 0.0003190040588378906
ell 1179, elapsed: 0.0004417896270751953
ell 1178, elapsed: 0.0003180503845214844
ell 1177, elapsed: 0.00046896934509277344
ell 1176, elapsed: 0.00032401084899902344
ell 1175, elapsed: 0.0006639957427978516
ell 1174, elapsed: 0.0003261566162109375
ell 1173, elapsed: 0.0005290508270263672
ell 1172, elapsed: 0.0003101825714111328
ell 1171, elapsed: 0.0005450248718261719
ell 1170, elapsed: 0.00026798248291015625
ell 1169, elapsed: 0.00036787986755371094
ell 1168, elapsed: 0.0002651214599609375
ell 1167, elapsed: 0.0004439353942871094
ell 1166, elapsed: 0.0003581047058105469
ell 1165, elapsed: 0.0005359649658203125
ell 1164, elapsed: 0.0003151893615722656
ell 1163, elapsed: 0.0004699230194091797
ell 1162, elapsed: 0.0003337860107421875
ell 1161, elapsed: 0.0004649162292480469
ell 1160, elapsed: 0.0003581047058105469
ell 1159, elapsed: 0.0005660057067871094
ell 1158, elapsed: 0.0003628730773925781
ell 1157, elapsed: 0.0006392002105712891
ell 1156, elapsed: 0.00036597251892089844
ell 1155, elapsed: 0.0006499290466308594
ell 1154, elapsed: 0.00036787986755371094
ell 1153, elapsed: 0.0006349086761474609
ell 1152, elapsed: 0.00041985511779785156
ell 1151, elapsed: 0.0005900859832763672
ell 1150, elapsed: 0.0003590583801269531
ell 1149, elapsed: 0.0005409717559814453
ell 1148, elapsed: 0.0003311634063720703
ell 1147, elapsed: 0.0005118846893310547
ell 1146, elapsed: 0.00040411949157714844
ell 1145, elapsed: 0.0005049705505371094
ell 1144, elapsed: 0.00030803680419921875
ell 1143, elapsed: 0.0004901885986328125
ell 1142, elapsed: 0.00036787986755371094
ell 1141, elapsed: 0.00043511390686035156
ell 1140, elapsed: 0.00031304359436035156
ell 1139, elapsed: 0.0004889965057373047
ell 1138, elapsed: 0.0003180503845214844
ell 1137, elapsed: 0.0004699230194091797
ell 1136, elapsed: 0.00033211708068847656
ell 1135, elapsed: 0.00046515464782714844
ell 1134, elapsed: 0.0003459453582763672
ell 1133, elapsed: 0.0004601478576660156
ell 1132, elapsed: 0.0003380775451660156
ell 1131, elapsed: 0.00047707557678222656
ell 1130, elapsed: 0.0003209114074707031
ell 1129, elapsed: 0.0005099773406982422
ell 1128, elapsed: 0.0003459453582763672
ell 1127, elapsed: 0.0004749298095703125
ell 1126, elapsed: 0.0003159046173095703
ell 1125, elapsed: 0.00041604042053222656
ell 1124, elapsed: 0.000308990478515625
ell 1123, elapsed: 0.0004100799560546875
ell 1122, elapsed: 0.00033211708068847656
ell 1121, elapsed: 0.00042510032653808594
ell 1120, elapsed: 0.00032711029052734375
ell 1119, elapsed: 0.00043702125549316406
ell 1118, elapsed: 0.0003199577331542969
ell 1117, elapsed: 0.0004639625549316406
ell 1116, elapsed: 0.0003228187561035156
ell 1115, elapsed: 0.00045800209045410156
ell 1114, elapsed: 0.00032210350036621094
ell 1113, elapsed: 0.0004851818084716797
ell 1112, elapsed: 0.0003178119659423828
ell 1111, elapsed: 0.00048089027404785156
ell 1110, elapsed: 0.0003509521484375
ell 1109, elapsed: 0.0005090236663818359
ell 1108, elapsed: 0.0003268718719482422
ell 1107, elapsed: 0.0004849433898925781
ell 1106, elapsed: 0.00031304359436035156
ell 1105, elapsed: 0.0006880760192871094
ell 1104, elapsed: 0.0003070831298828125
ell 1103, elapsed: 0.0004761219024658203
ell 1102, elapsed: 0.00030303001403808594
ell 1101, elapsed: 0.0004298686981201172
ell 1100, elapsed: 0.00031304359436035156
ell 1099, elapsed: 0.0004858970642089844
ell 1098, elapsed: 0.00033402442932128906
ell 1097, elapsed: 0.0004909038543701172
ell 1096, elapsed: 0.00033402442932128906
ell 1095, elapsed: 0.0004761219024658203
ell 1094, elapsed: 0.00032782554626464844
ell 1093, elapsed: 0.0004949569702148438
ell 1092, elapsed: 0.00032806396484375
ell 1091, elapsed: 0.0004398822784423828
ell 1090, elapsed: 0.0003020763397216797
ell 1089, elapsed: 0.00045800209045410156
ell 1088, elapsed: 0.00030112266540527344
ell 1087, elapsed: 0.0004401206970214844
ell 1086, elapsed: 0.0003139972686767578
ell 1085, elapsed: 0.00045299530029296875
ell 1084, elapsed: 0.0003180503845214844
ell 1083, elapsed: 0.0004839897155761719
ell 1082, elapsed: 0.00033211708068847656
ell 1081, elapsed: 0.0004909038543701172
ell 1080, elapsed: 0.0003669261932373047
ell 1079, elapsed: 0.0005950927734375
ell 1078, elapsed: 0.0003428459167480469
ell 1077, elapsed: 0.0005159378051757812
ell 1076, elapsed: 0.0003490447998046875
ell 1075, elapsed: 0.0005311965942382812
ell 1074, elapsed: 0.00034689903259277344
ell 1073, elapsed: 0.0005309581756591797
ell 1072, elapsed: 0.000408172607421875
ell 1071, elapsed: 0.0004918575286865234
ell 1070, elapsed: 0.0003459453582763672
ell 1069, elapsed: 0.000514984130859375
ell 1068, elapsed: 0.0003600120544433594
ell 1067, elapsed: 0.0004870891571044922
ell 1066, elapsed: 0.00033211708068847656
ell 1065, elapsed: 0.00046896934509277344
ell 1064, elapsed: 0.0003139972686767578
ell 1063, elapsed: 0.0004508495330810547
ell 1062, elapsed: 0.0003361701965332031
ell 1061, elapsed: 0.00043487548828125
ell 1060, elapsed: 0.00031185150146484375
ell 1059, elapsed: 0.0004432201385498047
ell 1058, elapsed: 0.0003139972686767578
ell 1057, elapsed: 0.0004749298095703125
ell 1056, elapsed: 0.00032019615173339844
ell 1055, elapsed: 0.0004601478576660156
ell 1054, elapsed: 0.00032210350036621094
ell 1053, elapsed: 0.0004589557647705078
ell 1052, elapsed: 0.00030994415283203125
ell 1051, elapsed: 0.0004470348358154297
ell 1050, elapsed: 0.0002970695495605469
ell 1049, elapsed: 0.0005059242248535156
ell 1048, elapsed: 0.0002999305725097656
ell 1047, elapsed: 0.0004398822784423828
ell 1046, elapsed: 0.0002951622009277344
ell 1045, elapsed: 0.00041413307189941406
ell 1044, elapsed: 0.0003209114074707031
ell 1043, elapsed: 0.00046896934509277344
ell 1042, elapsed: 0.0003161430358886719
ell 1041, elapsed: 0.00047588348388671875
ell 1040, elapsed: 0.0003070831298828125
ell 1039, elapsed: 0.00047707557678222656
ell 1038, elapsed: 0.00030493736267089844
ell 1037, elapsed: 0.0004658699035644531
ell 1036, elapsed: 0.00031495094299316406
ell 1035, elapsed: 0.0004558563232421875
ell 1034, elapsed: 0.0003190040588378906
ell 1033, elapsed: 0.0004570484161376953
ell 1032, elapsed: 0.0003199577331542969
ell 1031, elapsed: 0.00044798851013183594
ell 1030, elapsed: 0.00032401084899902344
ell 1029, elapsed: 0.00045299530029296875
ell 1028, elapsed: 0.00033092498779296875
ell 1027, elapsed: 0.00044798851013183594
ell 1026, elapsed: 0.0003161430358886719
ell 1025, elapsed: 0.0004620552062988281
ell 1024, elapsed: 0.0003108978271484375
ell 1023, elapsed: 0.00043511390686035156
ell 1022, elapsed: 0.00030994415283203125
ell 1021, elapsed: 0.0004341602325439453
ell 1020, elapsed: 0.00031304359436035156
ell 1019, elapsed: 0.0004260540008544922
ell 1018, elapsed: 0.00032901763916015625
ell 1017, elapsed: 0.0003859996795654297
ell 1016, elapsed: 0.0002989768981933594
ell 1015, elapsed: 0.00043487548828125
ell 1014, elapsed: 0.00031113624572753906
ell 1013, elapsed: 0.0004189014434814453
ell 1012, elapsed: 0.00032591819763183594
ell 1011, elapsed: 0.0004968643188476562
ell 1010, elapsed: 0.000347137451171875
ell 1009, elapsed: 0.00047206878662109375
ell 1008, elapsed: 0.00032210350036621094
ell 1007, elapsed: 0.0004608631134033203
ell 1006, elapsed: 0.0003139972686767578
ell 1005, elapsed: 0.0005381107330322266
ell 1004, elapsed: 0.00033402442932128906
ell 1003, elapsed: 0.0005109310150146484
ell 1002, elapsed: 0.0003349781036376953
ell 1001, elapsed: 0.0005061626434326172
ell 1000, elapsed: 0.0003521442413330078
ell 999, elapsed: 0.0005309581756591797
ell 998, elapsed: 0.00032401084899902344
ell 997, elapsed: 0.0004968643188476562
ell 996, elapsed: 0.0003299713134765625
ell 995, elapsed: 0.00047206878662109375
ell 994, elapsed: 0.00030493736267089844
ell 993, elapsed: 0.00048804283142089844
ell 992, elapsed: 0.0003211498260498047
ell 991, elapsed: 0.0004608631134033203
ell 990, elapsed: 0.0003101825714111328
ell 989, elapsed: 0.0004649162292480469
ell 988, elapsed: 0.0003139972686767578
ell 987, elapsed: 0.0005850791931152344
ell 986, elapsed: 0.0003001689910888672
ell 985, elapsed: 0.0004329681396484375
ell 984, elapsed: 0.0003120899200439453
ell 983, elapsed: 0.00045490264892578125
ell 982, elapsed: 0.00030803680419921875
ell 981, elapsed: 0.0004851818084716797
ell 980, elapsed: 0.0003139972686767578
ell 979, elapsed: 0.00043487548828125
ell 978, elapsed: 0.0002970695495605469
ell 977, elapsed: 0.0004749298095703125
ell 976, elapsed: 0.000331878662109375
ell 975, elapsed: 0.00045418739318847656
ell 974, elapsed: 0.0003218650817871094
ell 973, elapsed: 0.0004379749298095703
ell 972, elapsed: 0.00033402442932128906
ell 971, elapsed: 0.0004229545593261719
ell 970, elapsed: 0.00032901763916015625
ell 969, elapsed: 0.00045299530029296875
ell 968, elapsed: 0.00032711029052734375
ell 967, elapsed: 0.0004429817199707031
ell 966, elapsed: 0.00031876564025878906
ell 965, elapsed: 0.0004589557647705078
ell 964, elapsed: 0.0003190040588378906
ell 963, elapsed: 0.00048804283142089844
ell 962, elapsed: 0.0003368854522705078
ell 961, elapsed: 0.0004830360412597656
ell 960, elapsed: 0.0003120899200439453
ell 959, elapsed: 0.0004220008850097656
ell 958, elapsed: 0.00031185150146484375
ell 957, elapsed: 0.0004520416259765625
ell 956, elapsed: 0.0003139972686767578
ell 955, elapsed: 0.0004608631134033203
ell 954, elapsed: 0.0003161430358886719
ell 953, elapsed: 0.0004661083221435547
ell 952, elapsed: 0.0003180503845214844
ell 951, elapsed: 0.0004658699035644531
ell 950, elapsed: 0.000370025634765625
ell 949, elapsed: 0.0004830360412597656
ell 948, elapsed: 0.0003209114074707031
ell 947, elapsed: 0.0004718303680419922
ell 946, elapsed: 0.0003261566162109375
ell 945, elapsed: 0.0004279613494873047
ell 944, elapsed: 0.00032711029052734375
ell 943, elapsed: 0.0004658699035644531
ell 942, elapsed: 0.0003650188446044922
ell 941, elapsed: 0.00046706199645996094
ell 940, elapsed: 0.0003108978271484375
ell 939, elapsed: 0.0004448890686035156
ell 938, elapsed: 0.00034809112548828125
ell 937, elapsed: 0.0004901885986328125
ell 936, elapsed: 0.0003180503845214844
ell 935, elapsed: 0.00046515464782714844
ell 934, elapsed: 0.00034880638122558594
ell 933, elapsed: 0.0004870891571044922
ell 932, elapsed: 0.0003781318664550781
ell 931, elapsed: 0.0005519390106201172
ell 930, elapsed: 0.00036215782165527344
ell 929, elapsed: 0.0006120204925537109
ell 928, elapsed: 0.0003459453582763672
ell 927, elapsed: 0.0004379749298095703
ell 926, elapsed: 0.00031685829162597656
ell 925, elapsed: 0.0004258155822753906
ell 924, elapsed: 0.0003199577331542969
ell 923, elapsed: 0.0004799365997314453
ell 922, elapsed: 0.0003261566162109375
ell 921, elapsed: 0.00045680999755859375
ell 920, elapsed: 0.0003211498260498047
ell 919, elapsed: 0.0005068778991699219
ell 918, elapsed: 0.0003581047058105469
ell 917, elapsed: 0.0004589557647705078
ell 916, elapsed: 0.00032711029052734375
ell 915, elapsed: 0.0004649162292480469
ell 914, elapsed: 0.00033593177795410156
ell 913, elapsed: 0.0005471706390380859
ell 912, elapsed: 0.00031495094299316406
ell 911, elapsed: 0.0004508495330810547
ell 910, elapsed: 0.0003368854522705078
ell 909, elapsed: 0.0005419254302978516
ell 908, elapsed: 0.00032401084899902344
ell 907, elapsed: 0.0004551410675048828
ell 906, elapsed: 0.00031304359436035156
ell 905, elapsed: 0.0005888938903808594
ell 904, elapsed: 0.0003209114074707031
ell 903, elapsed: 0.0004551410675048828
ell 902, elapsed: 0.00035309791564941406
ell 901, elapsed: 0.0004980564117431641
ell 900, elapsed: 0.0003311634063720703
ell 899, elapsed: 0.0004229545593261719
ell 898, elapsed: 0.00032901763916015625
ell 897, elapsed: 0.0005521774291992188
ell 896, elapsed: 0.00031304359436035156
ell 895, elapsed: 0.0004589557647705078
ell 894, elapsed: 0.00030493736267089844
ell 893, elapsed: 0.0004019737243652344
ell 892, elapsed: 0.00028896331787109375
ell 891, elapsed: 0.00038886070251464844
ell 890, elapsed: 0.0003819465637207031
ell 889, elapsed: 0.0004420280456542969
ell 888, elapsed: 0.00030612945556640625
ell 887, elapsed: 0.00045800209045410156
ell 886, elapsed: 0.00030803680419921875
ell 885, elapsed: 0.0004558563232421875
ell 884, elapsed: 0.0003018379211425781
ell 883, elapsed: 0.00045299530029296875
ell 882, elapsed: 0.0003299713134765625
ell 881, elapsed: 0.0004360675811767578
ell 880, elapsed: 0.00031495094299316406
ell 879, elapsed: 0.00043201446533203125
ell 878, elapsed: 0.0003058910369873047
ell 877, elapsed: 0.00044417381286621094
ell 876, elapsed: 0.0003380775451660156
ell 875, elapsed: 0.00043392181396484375
ell 874, elapsed: 0.0003199577331542969
ell 873, elapsed: 0.0004420280456542969
ell 872, elapsed: 0.00032210350036621094
ell 871, elapsed: 0.00044608116149902344
ell 870, elapsed: 0.0003180503845214844
ell 869, elapsed: 0.0006170272827148438
ell 868, elapsed: 0.00042700767517089844
ell 867, elapsed: 0.0004661083221435547
ell 866, elapsed: 0.0003352165222167969
ell 865, elapsed: 0.0004630088806152344
ell 864, elapsed: 0.0005810260772705078
ell 863, elapsed: 0.0004839897155761719
ell 862, elapsed: 0.0003330707550048828
ell 861, elapsed: 0.0004677772521972656
ell 860, elapsed: 0.0003139972686767578
ell 859, elapsed: 0.00043702125549316406
ell 858, elapsed: 0.00034499168395996094
ell 857, elapsed: 0.0003981590270996094
ell 856, elapsed: 0.0003070831298828125
ell 855, elapsed: 0.0003921985626220703
ell 854, elapsed: 0.000308990478515625
ell 853, elapsed: 0.0004150867462158203
ell 852, elapsed: 0.0003070831298828125
ell 851, elapsed: 0.0004119873046875
ell 850, elapsed: 0.0003180503845214844
ell 849, elapsed: 0.0004258155822753906
ell 848, elapsed: 0.0003228187561035156
ell 847, elapsed: 0.0004420280456542969
ell 846, elapsed: 0.00032019615173339844
ell 845, elapsed: 0.00045299530029296875
ell 844, elapsed: 0.0003159046173095703
ell 843, elapsed: 0.00043702125549316406
ell 842, elapsed: 0.00031685829162597656
ell 841, elapsed: 0.0004220008850097656
ell 840, elapsed: 0.0003180503845214844
ell 839, elapsed: 0.00043702125549316406
ell 838, elapsed: 0.0003120899200439453
ell 837, elapsed: 0.00043892860412597656
ell 836, elapsed: 0.00030803680419921875
ell 835, elapsed: 0.0004360675811767578
ell 834, elapsed: 0.00032711029052734375
ell 833, elapsed: 0.0004229545593261719
ell 832, elapsed: 0.00031280517578125
ell 831, elapsed: 0.00041985511779785156
ell 830, elapsed: 0.0003020763397216797
ell 829, elapsed: 0.0004258155822753906
ell 828, elapsed: 0.0003161430358886719
ell 827, elapsed: 0.00043892860412597656
ell 826, elapsed: 0.0003440380096435547
ell 825, elapsed: 0.0004169940948486328
ell 824, elapsed: 0.00030994415283203125
ell 823, elapsed: 0.00042891502380371094
ell 822, elapsed: 0.0003070831298828125
ell 821, elapsed: 0.00040602684020996094
ell 820, elapsed: 0.0003991127014160156
ell 819, elapsed: 0.0005450248718261719
ell 818, elapsed: 0.0003139972686767578
ell 817, elapsed: 0.0004260540008544922
ell 816, elapsed: 0.0002968311309814453
ell 815, elapsed: 0.00039696693420410156
ell 814, elapsed: 0.0003120899200439453
ell 813, elapsed: 0.0004208087921142578
ell 812, elapsed: 0.0003020763397216797
ell 811, elapsed: 0.0004279613494873047
ell 810, elapsed: 0.0002849102020263672
ell 809, elapsed: 0.0004010200500488281
ell 808, elapsed: 0.0003228187561035156
ell 807, elapsed: 0.0004558563232421875
ell 806, elapsed: 0.0002899169921875
ell 805, elapsed: 0.0004878044128417969
ell 804, elapsed: 0.00030303001403808594
ell 803, elapsed: 0.0004210472106933594
ell 802, elapsed: 0.00030994415283203125
ell 801, elapsed: 0.0004429817199707031
ell 800, elapsed: 0.0003027915954589844
ell 799, elapsed: 0.0004239082336425781
ell 798, elapsed: 0.0002970695495605469
ell 797, elapsed: 0.0005660057067871094
ell 796, elapsed: 0.00030493736267089844
ell 795, elapsed: 0.00042510032653808594
ell 794, elapsed: 0.00031685829162597656
ell 793, elapsed: 0.0004940032958984375
ell 792, elapsed: 0.000331878662109375
ell 791, elapsed: 0.0005350112915039062
ell 790, elapsed: 0.0003120899200439453
ell 789, elapsed: 0.0006711483001708984
ell 788, elapsed: 0.0002789497375488281
ell 787, elapsed: 0.0003750324249267578
ell 786, elapsed: 0.0003600120544433594
ell 785, elapsed: 0.0003840923309326172
ell 784, elapsed: 0.0002810955047607422
ell 783, elapsed: 0.0003578662872314453
ell 782, elapsed: 0.0002701282501220703
ell 781, elapsed: 0.00037217140197753906
ell 780, elapsed: 0.00032591819763183594
ell 779, elapsed: 0.0005810260772705078
ell 778, elapsed: 0.0002751350402832031
ell 777, elapsed: 0.00036406517028808594
ell 776, elapsed: 0.0002620220184326172
ell 775, elapsed: 0.0003540515899658203
ell 774, elapsed: 0.00026297569274902344
ell 773, elapsed: 0.0003600120544433594
ell 772, elapsed: 0.0002579689025878906
ell 771, elapsed: 0.00039505958557128906
ell 770, elapsed: 0.00026297569274902344
ell 769, elapsed: 0.0003650188446044922
ell 768, elapsed: 0.00048804283142089844
ell 767, elapsed: 0.00038814544677734375
ell 766, elapsed: 0.0002689361572265625
ell 765, elapsed: 0.00035500526428222656
ell 764, elapsed: 0.0005409717559814453
ell 763, elapsed: 0.0006740093231201172
ell 762, elapsed: 0.00026917457580566406
ell 761, elapsed: 0.00037789344787597656
ell 760, elapsed: 0.0002620220184326172
ell 759, elapsed: 0.0003590583801269531
ell 758, elapsed: 0.00026488304138183594
ell 757, elapsed: 0.0003631114959716797
ell 756, elapsed: 0.0002598762512207031
ell 755, elapsed: 0.00038504600524902344
ell 754, elapsed: 0.0002689361572265625
ell 753, elapsed: 0.00040912628173828125
ell 752, elapsed: 0.0002689361572265625
ell 751, elapsed: 0.0003800392150878906
ell 750, elapsed: 0.0002751350402832031
ell 749, elapsed: 0.019307851791381836
ell 748, elapsed: 0.0002818107604980469
ell 747, elapsed: 0.0005869865417480469
ell 746, elapsed: 0.00028586387634277344
ell 745, elapsed: 0.0003859996795654297
ell 744, elapsed: 0.0002799034118652344
ell 743, elapsed: 0.00038695335388183594
ell 742, elapsed: 0.0002789497375488281
ell 741, elapsed: 0.0004329681396484375
ell 740, elapsed: 0.0002849102020263672
ell 739, elapsed: 0.00043702125549316406
ell 738, elapsed: 0.00030493736267089844
ell 737, elapsed: 0.0004100799560546875
ell 736, elapsed: 0.00028896331787109375
ell 735, elapsed: 0.0004150867462158203
ell 734, elapsed: 0.0002779960632324219
ell 733, elapsed: 0.0004131793975830078
ell 732, elapsed: 0.0003490447998046875
ell 731, elapsed: 0.0003859996795654297
ell 730, elapsed: 0.00027108192443847656
ell 729, elapsed: 0.0004019737243652344
ell 728, elapsed: 0.0002720355987548828
ell 727, elapsed: 0.0005190372467041016
ell 726, elapsed: 0.0003800392150878906
ell 725, elapsed: 0.0007688999176025391
ell 724, elapsed: 0.0009222030639648438
ell 723, elapsed: 0.0004029273986816406
ell 722, elapsed: 0.00026297569274902344
ell 721, elapsed: 0.0004038810729980469
ell 720, elapsed: 0.00028395652770996094
ell 719, elapsed: 0.00039505958557128906
ell 718, elapsed: 0.00030303001403808594
ell 717, elapsed: 0.00040602684020996094
ell 716, elapsed: 0.00026798248291015625
ell 715, elapsed: 0.0003941059112548828
ell 714, elapsed: 0.00026988983154296875
ell 713, elapsed: 0.00038123130798339844
ell 712, elapsed: 0.000270843505859375
ell 711, elapsed: 0.0003848075866699219
ell 710, elapsed: 0.0002598762512207031
ell 709, elapsed: 0.00037217140197753906
ell 708, elapsed: 0.00033593177795410156
ell 707, elapsed: 0.0004107952117919922
ell 706, elapsed: 0.0002751350402832031
ell 705, elapsed: 0.00039386749267578125
ell 704, elapsed: 0.0002760887145996094
ell 703, elapsed: 0.0003859996795654297
ell 702, elapsed: 0.000985860824584961
ell 701, elapsed: 0.0014262199401855469
ell 700, elapsed: 0.0010428428649902344
ell 699, elapsed: 0.0009458065032958984
ell 698, elapsed: 0.00029206275939941406
ell 697, elapsed: 0.0003960132598876953
ell 696, elapsed: 0.00027298927307128906
ell 695, elapsed: 0.0003859996795654297
ell 694, elapsed: 0.0002720355987548828
ell 693, elapsed: 0.000579833984375
ell 692, elapsed: 0.0004489421844482422
ell 691, elapsed: 0.0004999637603759766
ell 690, elapsed: 0.0002830028533935547
ell 689, elapsed: 0.00041413307189941406
ell 688, elapsed: 0.0009620189666748047
ell 687, elapsed: 0.0005791187286376953
ell 686, elapsed: 0.0003459453582763672
ell 685, elapsed: 0.00040721893310546875
ell 684, elapsed: 0.00027823448181152344
ell 683, elapsed: 0.0004010200500488281
ell 682, elapsed: 0.0002720355987548828
ell 681, elapsed: 0.0003750324249267578
ell 680, elapsed: 0.0005731582641601562
ell 679, elapsed: 0.0010881423950195312
ell 678, elapsed: 0.0004229545593261719
ell 677, elapsed: 0.0012459754943847656
ell 676, elapsed: 0.0005979537963867188
ell 675, elapsed: 0.0008327960968017578
ell 674, elapsed: 0.0009298324584960938
ell 673, elapsed: 0.0016739368438720703
ell 672, elapsed: 0.0007710456848144531
ell 671, elapsed: 0.00048279762268066406
ell 670, elapsed: 0.0005021095275878906
ell 669, elapsed: 0.00044417381286621094
ell 668, elapsed: 0.00028395652770996094
ell 667, elapsed: 0.0006251335144042969
ell 666, elapsed: 0.0003230571746826172
ell 665, elapsed: 0.0004298686981201172
ell 664, elapsed: 0.0003299713134765625
ell 663, elapsed: 0.0004630088806152344
ell 662, elapsed: 0.00031304359436035156
ell 661, elapsed: 0.0004239082336425781
ell 660, elapsed: 0.00029087066650390625
ell 659, elapsed: 0.00041604042053222656
ell 658, elapsed: 0.000408172607421875
ell 657, elapsed: 0.00042510032653808594
ell 656, elapsed: 0.0002779960632324219
ell 655, elapsed: 0.0003750324249267578
ell 654, elapsed: 0.00042510032653808594
ell 653, elapsed: 0.0006511211395263672
ell 652, elapsed: 0.0006108283996582031
ell 651, elapsed: 0.0007169246673583984
ell 650, elapsed: 0.0006430149078369141
ell 649, elapsed: 0.0006251335144042969
ell 648, elapsed: 0.0002880096435546875
ell 647, elapsed: 0.00038504600524902344
ell 646, elapsed: 0.00028395652770996094
ell 645, elapsed: 0.0004100799560546875
ell 644, elapsed: 0.0002789497375488281
ell 643, elapsed: 0.0005400180816650391
ell 642, elapsed: 0.0002899169921875
ell 641, elapsed: 0.00037980079650878906
ell 640, elapsed: 0.0002968311309814453
ell 639, elapsed: 0.00041604042053222656
ell 638, elapsed: 0.0002639293670654297
ell 637, elapsed: 0.0004057884216308594
ell 636, elapsed: 0.0002689361572265625
ell 635, elapsed: 0.0012900829315185547
ell 634, elapsed: 0.0002720355987548828
ell 633, elapsed: 0.00042700767517089844
ell 632, elapsed: 0.0003399848937988281
ell 631, elapsed: 0.0005998611450195312
ell 630, elapsed: 0.0002701282501220703
ell 629, elapsed: 0.00038504600524902344
ell 628, elapsed: 0.0005819797515869141
ell 627, elapsed: 0.0007889270782470703
ell 626, elapsed: 0.0003018379211425781
ell 625, elapsed: 0.0004401206970214844
ell 624, elapsed: 0.0003440380096435547
ell 623, elapsed: 0.000408172607421875
ell 622, elapsed: 0.0002918243408203125
ell 621, elapsed: 0.0003688335418701172
ell 620, elapsed: 0.00026297569274902344
ell 619, elapsed: 0.0006229877471923828
ell 618, elapsed: 0.00028204917907714844
ell 617, elapsed: 0.0006718635559082031
ell 616, elapsed: 0.0004241466522216797
ell 615, elapsed: 0.0008311271667480469
ell 614, elapsed: 0.00027179718017578125
ell 613, elapsed: 0.0003941059112548828
ell 612, elapsed: 0.0003199577331542969
ell 611, elapsed: 0.00038909912109375
ell 610, elapsed: 0.0002579689025878906
ell 609, elapsed: 0.0004150867462158203
ell 608, elapsed: 0.0006279945373535156
ell 607, elapsed: 0.0015459060668945312
ell 606, elapsed: 0.0005018711090087891
ell 605, elapsed: 0.0007619857788085938
ell 604, elapsed: 0.0002741813659667969
ell 603, elapsed: 0.0003769397735595703
ell 602, elapsed: 0.0002620220184326172
ell 601, elapsed: 0.0003910064697265625
ell 600, elapsed: 0.0002639293670654297
ell 599, elapsed: 0.00038313865661621094
ell 598, elapsed: 0.00028896331787109375
ell 597, elapsed: 0.0003859996795654297
ell 596, elapsed: 0.00026798248291015625
ell 595, elapsed: 0.00047397613525390625
ell 594, elapsed: 0.0002758502960205078
ell 593, elapsed: 0.0003981590270996094
ell 592, elapsed: 0.00026988983154296875
ell 591, elapsed: 0.0003910064697265625
ell 590, elapsed: 0.0003008842468261719
ell 589, elapsed: 0.0004279613494873047
ell 588, elapsed: 0.0005030632019042969
ell 587, elapsed: 0.0004649162292480469
ell 586, elapsed: 0.00027108192443847656
ell 585, elapsed: 0.0005841255187988281
ell 584, elapsed: 0.00028586387634277344
ell 583, elapsed: 0.0004410743713378906
ell 582, elapsed: 0.00026798248291015625
ell 581, elapsed: 0.00037407875061035156
ell 580, elapsed: 0.0004639625549316406
ell 579, elapsed: 0.00047206878662109375
ell 578, elapsed: 0.00026798248291015625
ell 577, elapsed: 0.00040793418884277344
ell 576, elapsed: 0.0002999305725097656
ell 575, elapsed: 0.0003960132598876953
ell 574, elapsed: 0.00026988983154296875
ell 573, elapsed: 0.0009410381317138672
ell 572, elapsed: 0.0002770423889160156
ell 571, elapsed: 0.0004000663757324219
ell 570, elapsed: 0.0002739429473876953
ell 569, elapsed: 0.00041103363037109375
ell 568, elapsed: 0.0003120899200439453
ell 567, elapsed: 0.0004239082336425781
ell 566, elapsed: 0.00027298927307128906
ell 565, elapsed: 0.00040411949157714844
ell 564, elapsed: 0.00026798248291015625
ell 563, elapsed: 0.0003981590270996094
ell 562, elapsed: 0.0002799034118652344
ell 561, elapsed: 0.0004220008850097656
ell 560, elapsed: 0.00026416778564453125
ell 559, elapsed: 0.0004220008850097656
ell 558, elapsed: 0.0002779960632324219
ell 557, elapsed: 0.00041484832763671875
ell 556, elapsed: 0.0002779960632324219
ell 555, elapsed: 0.0007679462432861328
ell 554, elapsed: 0.00035190582275390625
ell 553, elapsed: 0.000823974609375
ell 552, elapsed: 0.0007359981536865234
ell 551, elapsed: 0.0008330345153808594
ell 550, elapsed: 0.00028204917907714844
ell 549, elapsed: 0.00041985511779785156
ell 548, elapsed: 0.00028896331787109375
ell 547, elapsed: 0.00040602684020996094
ell 546, elapsed: 0.0002739429473876953
ell 545, elapsed: 0.000392913818359375
ell 544, elapsed: 0.0002751350402832031
ell 543, elapsed: 0.0004169940948486328
ell 542, elapsed: 0.00027680397033691406
ell 541, elapsed: 0.00040793418884277344
ell 540, elapsed: 0.00026917457580566406
ell 539, elapsed: 0.00040721893310546875
ell 538, elapsed: 0.0003979206085205078
ell 537, elapsed: 0.0007419586181640625
ell 536, elapsed: 0.0003380775451660156
ell 535, elapsed: 0.00045609474182128906
ell 534, elapsed: 0.0002758502960205078
ell 533, elapsed: 0.0004239082336425781
ell 532, elapsed: 0.0002791881561279297
ell 531, elapsed: 0.00047397613525390625
ell 530, elapsed: 0.0002739429473876953
ell 529, elapsed: 0.0007021427154541016
ell 528, elapsed: 0.0002760887145996094
ell 527, elapsed: 0.0006139278411865234
ell 526, elapsed: 0.00032901763916015625
ell 525, elapsed: 0.0004239082336425781
ell 524, elapsed: 0.00027489662170410156
ell 523, elapsed: 0.00038504600524902344
ell 522, elapsed: 0.0003070831298828125
ell 521, elapsed: 0.00038695335388183594
ell 520, elapsed: 0.00028896331787109375
ell 519, elapsed: 0.00042510032653808594
ell 518, elapsed: 0.0003731250762939453
ell 517, elapsed: 0.00041413307189941406
ell 516, elapsed: 0.00027298927307128906
ell 515, elapsed: 0.0003941059112548828
ell 514, elapsed: 0.0002799034118652344
ell 513, elapsed: 0.00039696693420410156
ell 512, elapsed: 0.0003058910369873047
ell 511, elapsed: 0.0004119873046875
ell 510, elapsed: 0.0002799034118652344
ell 509, elapsed: 0.0004260540008544922
ell 508, elapsed: 0.0002791881561279297
ell 507, elapsed: 0.0003998279571533203
ell 506, elapsed: 0.000308990478515625
ell 505, elapsed: 0.00046896934509277344
ell 504, elapsed: 0.0002799034118652344
ell 503, elapsed: 0.0004200935363769531
ell 502, elapsed: 0.0002949237823486328
ell 501, elapsed: 0.0004119873046875
ell 500, elapsed: 0.00033402442932128906
ell 499, elapsed: 0.00037288665771484375
ell 498, elapsed: 0.00026702880859375
ell 497, elapsed: 0.0003809928894042969
ell 496, elapsed: 0.0002999305725097656
ell 495, elapsed: 0.0003769397735595703
ell 494, elapsed: 0.00026106834411621094
ell 493, elapsed: 0.0004019737243652344
ell 492, elapsed: 0.00026988983154296875
ell 491, elapsed: 0.00039005279541015625
ell 490, elapsed: 0.0002880096435546875
ell 489, elapsed: 0.00037598609924316406
ell 488, elapsed: 0.00026798248291015625
ell 487, elapsed: 0.0004138946533203125
ell 486, elapsed: 0.0002789497375488281
ell 485, elapsed: 0.0003859996795654297
ell 484, elapsed: 0.00029397010803222656
ell 483, elapsed: 0.00039196014404296875
ell 482, elapsed: 0.00027108192443847656
ell 481, elapsed: 0.00041103363037109375
ell 480, elapsed: 0.00027108192443847656
ell 479, elapsed: 0.0004050731658935547
ell 478, elapsed: 0.0002639293670654297
ell 477, elapsed: 0.00039005279541015625
ell 476, elapsed: 0.0002789497375488281
ell 475, elapsed: 0.0004169940948486328
ell 474, elapsed: 0.00026416778564453125
ell 473, elapsed: 0.0003941059112548828
ell 472, elapsed: 0.000331878662109375
ell 471, elapsed: 0.00037288665771484375
ell 470, elapsed: 0.0003039836883544922
ell 469, elapsed: 0.0003979206085205078
ell 468, elapsed: 0.00029778480529785156
ell 467, elapsed: 0.00040602684020996094
ell 466, elapsed: 0.00029397010803222656
ell 465, elapsed: 0.00038909912109375
ell 464, elapsed: 0.00026679039001464844
ell 463, elapsed: 0.00043201446533203125
ell 462, elapsed: 0.00026988983154296875
ell 461, elapsed: 0.000392913818359375
ell 460, elapsed: 0.00026988983154296875
ell 459, elapsed: 0.0003800392150878906
ell 458, elapsed: 0.00027108192443847656
ell 457, elapsed: 0.0003790855407714844
ell 456, elapsed: 0.000270843505859375
ell 455, elapsed: 0.0003769397735595703
ell 454, elapsed: 0.00027108192443847656
ell 453, elapsed: 0.00044083595275878906
ell 452, elapsed: 0.00027489662170410156
ell 451, elapsed: 0.0003840923309326172
ell 450, elapsed: 0.0002720355987548828
ell 449, elapsed: 0.0003790855407714844
ell 448, elapsed: 0.00027179718017578125
ell 447, elapsed: 0.0003781318664550781
ell 446, elapsed: 0.00030684471130371094
ell 445, elapsed: 0.0003972053527832031
ell 444, elapsed: 0.00033593177795410156
ell 443, elapsed: 0.0004010200500488281
ell 442, elapsed: 0.0002770423889160156
ell 441, elapsed: 0.0003790855407714844
ell 440, elapsed: 0.0002770423889160156
ell 439, elapsed: 0.00046515464782714844
ell 438, elapsed: 0.00029206275939941406
ell 437, elapsed: 0.00043892860412597656
ell 436, elapsed: 0.0002830028533935547
ell 435, elapsed: 0.0005040168762207031
ell 434, elapsed: 0.0002758502960205078
ell 433, elapsed: 0.0003991127014160156
ell 432, elapsed: 0.00029087066650390625
ell 431, elapsed: 0.00037407875061035156
ell 430, elapsed: 0.00026297569274902344
ell 429, elapsed: 0.00039005279541015625
ell 428, elapsed: 0.0002720355987548828
ell 427, elapsed: 0.00037097930908203125
ell 426, elapsed: 0.0003058910369873047
ell 425, elapsed: 0.00037479400634765625
ell 424, elapsed: 0.0002779960632324219
ell 423, elapsed: 0.00037384033203125
ell 422, elapsed: 0.00026988983154296875
ell 421, elapsed: 0.0003631114959716797
ell 420, elapsed: 0.0002739429473876953
ell 419, elapsed: 0.00037288665771484375
ell 418, elapsed: 0.0002639293670654297
ell 417, elapsed: 0.00040411949157714844
ell 416, elapsed: 0.0003230571746826172
ell 415, elapsed: 0.0003650188446044922
ell 414, elapsed: 0.00028204917907714844
ell 413, elapsed: 0.0003800392150878906
ell 412, elapsed: 0.0002770423889160156
ell 411, elapsed: 0.00038504600524902344
ell 410, elapsed: 0.0002830028533935547
ell 409, elapsed: 0.0003979206085205078
ell 408, elapsed: 0.0002789497375488281
ell 407, elapsed: 0.00045800209045410156
ell 406, elapsed: 0.00027108192443847656
ell 405, elapsed: 0.0003859996795654297
ell 404, elapsed: 0.0002701282501220703
ell 403, elapsed: 0.00038313865661621094
ell 402, elapsed: 0.0002720355987548828
ell 401, elapsed: 0.00038886070251464844
ell 400, elapsed: 0.00029087066650390625
ell 399, elapsed: 0.0003960132598876953
ell 398, elapsed: 0.00026988983154296875
ell 397, elapsed: 0.00039196014404296875
ell 396, elapsed: 0.00027179718017578125
ell 395, elapsed: 0.0003769397735595703
ell 394, elapsed: 0.00028705596923828125
ell 393, elapsed: 0.00037407875061035156
ell 392, elapsed: 0.00026702880859375
ell 391, elapsed: 0.0004100799560546875
ell 390, elapsed: 0.000286102294921875
ell 389, elapsed: 0.00043487548828125
ell 388, elapsed: 0.00028204917907714844
ell 387, elapsed: 0.00040912628173828125
ell 386, elapsed: 0.0002799034118652344
ell 385, elapsed: 0.00038814544677734375
ell 384, elapsed: 0.0002779960632324219
ell 383, elapsed: 0.0003991127014160156
ell 382, elapsed: 0.00028014183044433594
ell 381, elapsed: 0.0003948211669921875
ell 380, elapsed: 0.0002770423889160156
ell 379, elapsed: 0.0005691051483154297
ell 378, elapsed: 0.00029087066650390625
ell 377, elapsed: 0.0004138946533203125
ell 376, elapsed: 0.0002849102020263672
ell 375, elapsed: 0.0004000663757324219
ell 374, elapsed: 0.0002739429473876953
ell 373, elapsed: 0.00047278404235839844
ell 372, elapsed: 0.00029015541076660156
ell 371, elapsed: 0.0005309581756591797
ell 370, elapsed: 0.0002899169921875
ell 369, elapsed: 0.00046706199645996094
ell 368, elapsed: 0.0002961158752441406
ell 367, elapsed: 0.00043892860412597656
ell 366, elapsed: 0.00028395652770996094
ell 365, elapsed: 0.0004169940948486328
ell 364, elapsed: 0.0002789497375488281
ell 363, elapsed: 0.0004191398620605469
ell 362, elapsed: 0.00030493736267089844
ell 361, elapsed: 0.0004200935363769531
ell 360, elapsed: 0.0002751350402832031
ell 359, elapsed: 0.0004401206970214844
ell 358, elapsed: 0.00028705596923828125
ell 357, elapsed: 0.0004420280456542969
ell 356, elapsed: 0.00030612945556640625
ell 355, elapsed: 0.00046515464782714844
ell 354, elapsed: 0.0002999305725097656
ell 353, elapsed: 0.0004911422729492188
ell 352, elapsed: 0.00028204917907714844
ell 351, elapsed: 0.0004830360412597656
ell 350, elapsed: 0.0002949237823486328
ell 349, elapsed: 0.00045013427734375
ell 348, elapsed: 0.0002830028533935547
ell 347, elapsed: 0.00040793418884277344
ell 346, elapsed: 0.0002689361572265625
ell 345, elapsed: 0.00045609474182128906
ell 344, elapsed: 0.00026679039001464844
ell 343, elapsed: 0.0005090236663818359
ell 342, elapsed: 0.0002760887145996094
ell 341, elapsed: 0.000370025634765625
ell 340, elapsed: 0.0002779960632324219
ell 339, elapsed: 0.00039386749267578125
ell 338, elapsed: 0.00026702880859375
ell 337, elapsed: 0.0004458427429199219
ell 336, elapsed: 0.0003199577331542969
ell 335, elapsed: 0.0005528926849365234
ell 334, elapsed: 0.0003120899200439453
ell 333, elapsed: 0.0004448890686035156
ell 332, elapsed: 0.0003440380096435547
ell 331, elapsed: 0.0004410743713378906
ell 330, elapsed: 0.0003211498260498047
ell 329, elapsed: 0.0004858970642089844
ell 328, elapsed: 0.0003249645233154297
ell 327, elapsed: 0.000514984130859375
ell 326, elapsed: 0.0002970695495605469
ell 325, elapsed: 0.0004229545593261719
ell 324, elapsed: 0.00028204917907714844
ell 323, elapsed: 0.00042700767517089844
ell 322, elapsed: 0.00029087066650390625
ell 321, elapsed: 0.00043511390686035156
ell 320, elapsed: 0.000286102294921875
ell 319, elapsed: 0.0004248619079589844
ell 318, elapsed: 0.00028896331787109375
ell 317, elapsed: 0.0004398822784423828
ell 316, elapsed: 0.0002942085266113281
ell 315, elapsed: 0.0004210472106933594
ell 314, elapsed: 0.0003020763397216797
ell 313, elapsed: 0.0004119873046875
ell 312, elapsed: 0.00028896331787109375
ell 311, elapsed: 0.0004189014434814453
ell 310, elapsed: 0.0003018379211425781
ell 309, elapsed: 0.0004379749298095703
ell 308, elapsed: 0.0002949237823486328
ell 307, elapsed: 0.0004291534423828125
ell 306, elapsed: 0.0003120899200439453
ell 305, elapsed: 0.0004630088806152344
ell 304, elapsed: 0.00031185150146484375
ell 303, elapsed: 0.0004680156707763672
ell 302, elapsed: 0.0003108978271484375
ell 301, elapsed: 0.00047898292541503906
ell 300, elapsed: 0.0002980232238769531
ell 299, elapsed: 0.0004801750183105469
ell 298, elapsed: 0.0002751350402832031
ell 297, elapsed: 0.0003819465637207031
ell 296, elapsed: 0.000286102294921875
ell 295, elapsed: 0.0003859996795654297
ell 294, elapsed: 0.0002779960632324219
ell 293, elapsed: 0.00042700767517089844
ell 292, elapsed: 0.0002758502960205078
ell 291, elapsed: 0.0003790855407714844
ell 290, elapsed: 0.0002651214599609375
ell 289, elapsed: 0.0003788471221923828
ell 288, elapsed: 0.0002620220184326172
ell 287, elapsed: 0.0003719329833984375
ell 286, elapsed: 0.00027298927307128906
ell 285, elapsed: 0.0003769397735595703
ell 284, elapsed: 0.00028514862060546875
ell 283, elapsed: 0.0004680156707763672
ell 282, elapsed: 0.0002789497375488281
ell 281, elapsed: 0.0003788471221923828
ell 280, elapsed: 0.00026988983154296875
ell 279, elapsed: 0.00037097930908203125
ell 278, elapsed: 0.00027298927307128906
ell 277, elapsed: 0.0003859996795654297
ell 276, elapsed: 0.0002741813659667969
ell 275, elapsed: 0.0003840923309326172
ell 274, elapsed: 0.00028395652770996094
ell 273, elapsed: 0.0004029273986816406
ell 272, elapsed: 0.0004069805145263672
ell 271, elapsed: 0.0005049705505371094
ell 270, elapsed: 0.000308990478515625
ell 269, elapsed: 0.0004019737243652344
ell 268, elapsed: 0.0002720355987548828
ell 267, elapsed: 0.0003750324249267578
ell 266, elapsed: 0.0002789497375488281
ell 265, elapsed: 0.0004298686981201172
ell 264, elapsed: 0.0002799034118652344
ell 263, elapsed: 0.00036406517028808594
ell 262, elapsed: 0.0002651214599609375
ell 261, elapsed: 0.000370025634765625
ell 260, elapsed: 0.00026297569274902344
ell 259, elapsed: 0.00042700767517089844
ell 258, elapsed: 0.00026106834411621094
ell 257, elapsed: 0.0003829002380371094
ell 256, elapsed: 0.0003650188446044922
ell 255, elapsed: 0.0004620552062988281
ell 254, elapsed: 0.0002892017364501953
ell 253, elapsed: 0.0004057884216308594
ell 252, elapsed: 0.0002751350402832031
ell 251, elapsed: 0.0003910064697265625
ell 250, elapsed: 0.0002570152282714844
ell 249, elapsed: 0.0003819465637207031
ell 248, elapsed: 0.00026607513427734375
ell 247, elapsed: 0.0003819465637207031
ell 246, elapsed: 0.00026988983154296875
ell 245, elapsed: 0.00037407875061035156
ell 244, elapsed: 0.000263214111328125
ell 243, elapsed: 0.000370025634765625
ell 242, elapsed: 0.00026297569274902344
ell 241, elapsed: 0.0003600120544433594
ell 240, elapsed: 0.00026798248291015625
ell 239, elapsed: 0.0003750324249267578
ell 238, elapsed: 0.0002658367156982422
ell 237, elapsed: 0.0004420280456542969
ell 236, elapsed: 0.00026798248291015625
ell 235, elapsed: 0.00036716461181640625
ell 234, elapsed: 0.00026416778564453125
ell 233, elapsed: 0.00037598609924316406
ell 232, elapsed: 0.00027298927307128906
ell 231, elapsed: 0.0003819465637207031
ell 230, elapsed: 0.0002639293670654297
ell 229, elapsed: 0.00036907196044921875
ell 228, elapsed: 0.00026917457580566406
ell 227, elapsed: 0.0004279613494873047
ell 226, elapsed: 0.0002689361572265625
ell 225, elapsed: 0.00037384033203125
ell 224, elapsed: 0.00026988983154296875
ell 223, elapsed: 0.00036787986755371094
ell 222, elapsed: 0.0003600120544433594
ell 221, elapsed: 0.00048613548278808594
ell 220, elapsed: 0.00026297569274902344
ell 219, elapsed: 0.0003790855407714844
ell 218, elapsed: 0.0003390312194824219
ell 217, elapsed: 0.0003859996795654297
ell 216, elapsed: 0.00027179718017578125
ell 215, elapsed: 0.0003750324249267578
ell 214, elapsed: 0.00026607513427734375
ell 213, elapsed: 0.0003609657287597656
ell 212, elapsed: 0.0003159046173095703
ell 211, elapsed: 0.0003972053527832031
ell 210, elapsed: 0.0002579689025878906
ell 209, elapsed: 0.0003609657287597656
ell 208, elapsed: 0.00026488304138183594
ell 207, elapsed: 0.00037598609924316406
ell 206, elapsed: 0.00026702880859375
ell 205, elapsed: 0.00038695335388183594
ell 204, elapsed: 0.00026106834411621094
ell 203, elapsed: 0.0003628730773925781
ell 202, elapsed: 0.00026702880859375
ell 201, elapsed: 0.0003628730773925781
ell 200, elapsed: 0.0002651214599609375
ell 199, elapsed: 0.00046181678771972656
ell 198, elapsed: 0.00026488304138183594
ell 197, elapsed: 0.0003750324249267578
ell 196, elapsed: 0.00033402442932128906
ell 195, elapsed: 0.00038313865661621094
ell 194, elapsed: 0.0002770423889160156
ell 193, elapsed: 0.0004038810729980469
ell 192, elapsed: 0.0002758502960205078
ell 191, elapsed: 0.00039505958557128906
ell 190, elapsed: 0.0003371238708496094
ell 189, elapsed: 0.0003769397735595703
ell 188, elapsed: 0.00027108192443847656
ell 187, elapsed: 0.00038886070251464844
ell 186, elapsed: 0.0002720355987548828
ell 185, elapsed: 0.0003991127014160156
ell 184, elapsed: 0.00026798248291015625
ell 183, elapsed: 0.00036907196044921875
ell 182, elapsed: 0.00026106834411621094
ell 181, elapsed: 0.0003662109375
ell 180, elapsed: 0.00034308433532714844
ell 179, elapsed: 0.0003979206085205078
ell 178, elapsed: 0.00027298927307128906
ell 177, elapsed: 0.0003848075866699219
ell 176, elapsed: 0.00026798248291015625
ell 175, elapsed: 0.00037097930908203125
ell 174, elapsed: 0.00026798248291015625
ell 173, elapsed: 0.0003681182861328125
ell 172, elapsed: 0.0002651214599609375
ell 171, elapsed: 0.0004439353942871094
ell 170, elapsed: 0.00027108192443847656
ell 169, elapsed: 0.00037479400634765625
ell 168, elapsed: 0.00026488304138183594
ell 167, elapsed: 0.0003800392150878906
ell 166, elapsed: 0.0003268718719482422
ell 165, elapsed: 0.0004038810729980469
ell 164, elapsed: 0.00026702880859375
ell 163, elapsed: 0.00038123130798339844
ell 162, elapsed: 0.00026798248291015625
ell 161, elapsed: 0.00038909912109375
ell 160, elapsed: 0.0002651214599609375
ell 159, elapsed: 0.00038504600524902344
ell 158, elapsed: 0.00026297569274902344
ell 157, elapsed: 0.0003719329833984375
ell 156, elapsed: 0.0002651214599609375
ell 155, elapsed: 0.0003960132598876953
ell 154, elapsed: 0.0002689361572265625
ell 153, elapsed: 0.0003979206085205078
ell 152, elapsed: 0.0002999305725097656
ell 151, elapsed: 0.0003859996795654297
ell 150, elapsed: 0.0002808570861816406
ell 149, elapsed: 0.0004248619079589844
ell 148, elapsed: 0.000286102294921875
ell 147, elapsed: 0.0004229545593261719
ell 146, elapsed: 0.0002830028533935547
ell 145, elapsed: 0.00041604042053222656
ell 144, elapsed: 0.0002808570861816406
ell 143, elapsed: 0.0005609989166259766
ell 142, elapsed: 0.00028705596923828125
ell 141, elapsed: 0.0004849433898925781
ell 140, elapsed: 0.0002770423889160156
ell 139, elapsed: 0.000408172607421875
ell 138, elapsed: 0.0002751350402832031
ell 137, elapsed: 0.00038909912109375
ell 136, elapsed: 0.0002620220184326172
ell 135, elapsed: 0.0003590583801269531
ell 134, elapsed: 0.00029397010803222656
ell 133, elapsed: 0.0004200935363769531
ell 132, elapsed: 0.0002598762512207031
ell 131, elapsed: 0.00037980079650878906
ell 130, elapsed: 0.0002579689025878906
ell 129, elapsed: 0.0004100799560546875
ell 128, elapsed: 0.0002701282501220703
ell 127, elapsed: 0.00039196014404296875
ell 126, elapsed: 0.00026106834411621094
ell 125, elapsed: 0.0003790855407714844
ell 124, elapsed: 0.0002689361572265625
ell 123, elapsed: 0.0003681182861328125
ell 122, elapsed: 0.0002620220184326172
ell 121, elapsed: 0.0004601478576660156
ell 120, elapsed: 0.00026607513427734375
ell 119, elapsed: 0.0003910064697265625
ell 118, elapsed: 0.00026798248291015625
ell 117, elapsed: 0.00039386749267578125
ell 116, elapsed: 0.00027179718017578125
ell 115, elapsed: 0.00045609474182128906
ell 114, elapsed: 0.0002739429473876953
ell 113, elapsed: 0.0004010200500488281
ell 112, elapsed: 0.00026702880859375
ell 111, elapsed: 0.0003898143768310547
ell 110, elapsed: 0.00026917457580566406
ell 109, elapsed: 0.0003681182861328125
ell 108, elapsed: 0.0003008842468261719
ell 107, elapsed: 0.0003972053527832031
ell 106, elapsed: 0.00030803680419921875
ell 105, elapsed: 0.0004088878631591797
ell 104, elapsed: 0.0002720355987548828
ell 103, elapsed: 0.0003840923309326172
ell 102, elapsed: 0.00026988983154296875
ell 101, elapsed: 0.0003859996795654297
ell 100, elapsed: 0.00027108192443847656
ell 99, elapsed: 0.00042510032653808594
ell 98, elapsed: 0.0002949237823486328
ell 97, elapsed: 0.0004360675811767578
ell 96, elapsed: 0.0002701282501220703
ell 95, elapsed: 0.00035500526428222656
ell 94, elapsed: 0.0002639293670654297
ell 93, elapsed: 0.00036597251892089844
ell 92, elapsed: 0.0002608299255371094
ell 91, elapsed: 0.00038504600524902344
ell 90, elapsed: 0.00026607513427734375
ell 89, elapsed: 0.00036716461181640625
ell 88, elapsed: 0.0002658367156982422
ell 87, elapsed: 0.0004448890686035156
ell 86, elapsed: 0.000270843505859375
ell 85, elapsed: 0.0003669261932373047
ell 84, elapsed: 0.00026488304138183594
ell 83, elapsed: 0.0003528594970703125
ell 82, elapsed: 0.0002651214599609375
ell 81, elapsed: 0.0003829002380371094
ell 80, elapsed: 0.00026798248291015625
ell 79, elapsed: 0.0003979206085205078
ell 78, elapsed: 0.0002799034118652344
ell 77, elapsed: 0.00039196014404296875
ell 76, elapsed: 0.00026798248291015625
ell 75, elapsed: 0.0003769397735595703
ell 74, elapsed: 0.00026702880859375
ell 73, elapsed: 0.0003600120544433594
ell 72, elapsed: 0.0002651214599609375
ell 71, elapsed: 0.0003719329833984375
ell 70, elapsed: 0.0002620220184326172
ell 69, elapsed: 0.0003800392150878906
ell 68, elapsed: 0.000331878662109375
ell 67, elapsed: 0.00036907196044921875
ell 66, elapsed: 0.00028896331787109375
ell 65, elapsed: 0.0004189014434814453
ell 64, elapsed: 0.00026297569274902344
ell 63, elapsed: 0.0003819465637207031
ell 62, elapsed: 0.00026917457580566406
ell 61, elapsed: 0.0003809928894042969
ell 60, elapsed: 0.0002620220184326172
ell 59, elapsed: 0.00036907196044921875
ell 58, elapsed: 0.0002620220184326172
ell 57, elapsed: 0.00037097930908203125
ell 56, elapsed: 0.0002598762512207031
ell 55, elapsed: 0.0003619194030761719
ell 54, elapsed: 0.00028705596923828125
ell 53, elapsed: 0.0004260540008544922
ell 52, elapsed: 0.00026607513427734375
ell 51, elapsed: 0.0003819465637207031
ell 50, elapsed: 0.00026416778564453125
ell 49, elapsed: 0.00042510032653808594
ell 48, elapsed: 0.0002651214599609375
ell 47, elapsed: 0.0004100799560546875
ell 46, elapsed: 0.00033783912658691406
ell 45, elapsed: 0.00038313865661621094
ell 44, elapsed: 0.00026607513427734375
ell 43, elapsed: 0.0003809928894042969
ell 42, elapsed: 0.00026798248291015625
ell 41, elapsed: 0.0003819465637207031
ell 40, elapsed: 0.00033402442932128906
ell 39, elapsed: 0.000370025634765625
ell 38, elapsed: 0.0002658367156982422
ell 37, elapsed: 0.0003578662872314453
ell 36, elapsed: 0.00026679039001464844
ell 35, elapsed: 0.0003669261932373047
ell 34, elapsed: 0.00026798248291015625
ell 33, elapsed: 0.0003921985626220703
ell 32, elapsed: 0.00026988983154296875
ell 31, elapsed: 0.0003790855407714844
ell 30, elapsed: 0.00026416778564453125
ell 29, elapsed: 0.0003559589385986328
ell 28, elapsed: 0.00026702880859375
ell 27, elapsed: 0.0003790855407714844
ell 26, elapsed: 0.0002770423889160156
ell 25, elapsed: 0.0003840923309326172
ell 24, elapsed: 0.00026607513427734375
ell 23, elapsed: 0.00037789344787597656
ell 22, elapsed: 0.0002689361572265625
ell 21, elapsed: 0.0004208087921142578
ell 20, elapsed: 0.00026297569274902344
ell 19, elapsed: 0.00036597251892089844
ell 18, elapsed: 0.00026488304138183594
ell 17, elapsed: 0.0003540515899658203
ell 16, elapsed: 0.0002620220184326172
ell 15, elapsed: 0.0003941059112548828
ell 14, elapsed: 0.0002651214599609375
ell 13, elapsed: 0.00038313865661621094
ell 12, elapsed: 0.00027108192443847656
ell 11, elapsed: 0.000453948974609375
ell 10, elapsed: 0.0002639293670654297
ell 9, elapsed: 0.0003590583801269531
ell 8, elapsed: 0.00026416778564453125
ell 7, elapsed: 0.0003628730773925781
ell 6, elapsed: 0.00026297569274902344
ell 5, elapsed: 0.0003631114959716797
ell 4, elapsed: 0.0002658367156982422
ell 3, elapsed: 0.0003600120544433594
ell 2, elapsed: 0.00026297569274902344
ell 1, elapsed: 0.0004029273986816406
ell 0, elapsed: 0.0002620220184326172
  0.687155 seconds (56.99 k allocations: 2.783 MiB, 2.70% gc time)
elapsed: 0.0006492137908935547
step:          0.051156 sec (0 allocations: 0 byte, 0.0% gc time)
swapping:      0.000884 sec (0 allocations: 0 byte, 0.0% gc time)
calc_Mellell!: 0.00656 sec (0 allocations: 0 byte, 0.0% gc time)
  t0 :  0.002527 sec (0 allocations: 0 byte, 0.0% gc time)
  tm2 : 0.067825 sec (0 allocations: 0 byte, 0.0% gc time)
  tm2s: 0.00203 sec (0 allocations: 0 byte, 0.0% gc time)
  tm4 : 0.152354 sec (0 allocations: 0 byte, 0.0% gc time)
  tp2 : 0.0 sec (0 allocations: 0 byte, 0.0% gc time)
  tp2s: 0.0 sec (0 allocations: 0 byte, 0.0% gc time)
  tp4 : 0.0 sec (0 allocations: 0 byte, 0.0% gc time)
calc_wtdll!:   0.260861 sec (9.87 k allocations: 1.043 MB, 7.11% gc time)
calc_wljj!:    0.030824 sec (689 allocations: 10.766 KB, 0.0% gc time)
mult_prefac!:  0.0 sec (0 allocations: 0 byte, 0.0% gc time)
convert:       0.0 sec (0 allocations: 0 byte, 0.0% gc time)
write:         0.084498 sec (0 allocations: 0 byte, 0.0% gc time)
test_rand_2f1: 0.0 sec (0 allocations: 0 byte, 0.0% gc time)
Closing outfile out/Ml21-cache.bin...   0.989429 seconds
  0.000588 seconds (55 allocations: 28.531 KiB)
make_phi():   0.001804 seconds (8.20 k allocations: 238.250 KiB)
  0.133097 seconds (146.69 k allocations: 3.629 MiB)
tskip:       0.000993 sec (0 allocations: 0 byte, 0.0% gc time)
tread:       0.019239 sec (15 allocations: 10.578 KB, 0.0% gc time)
tmultphi:    0.017117 sec (0 allocations: 0 byte, 0.0% gc time)
tbrfft:      0.038439 sec (9.592 k allocations: 449.625 KB, 0.0% gc time)
tmultprefac: 0.018621 sec (0 allocations: 0 byte, 0.0% gc time)
toutfunc:    0.03741 sec (129.905 k allocations: 2.421 MB, 0.0% gc time)
Testing R=1.0 ... passed
Calculating fmax: 
  dlrec    = 4
  dlrecRg1 = -4
  q=1.1, R=0.9:	  0.517407 seconds (148.53 k allocations: 69.799 MiB, 27.50% gc time)

  0.517776 seconds (148.60 k allocations: 69.831 MiB, 27.49% gc time)
ℓ = 1202
Δℓ = 4
ΔℓRg1 = -4
N = 1600
q = 1.1
kmin = 1.0e-5
kmax = 100000.00000000004
χ0 = 0.023029999999999995
RR = RR.tsv
ℓmax = ℓmax.bin
f21 = f21.bin
kmin = 1.0e-5
kmax = 100000.0
dlrec    = 4
dlrecRg1 = -4
Output size: 5741568 bytes = 0.005347251892089844 GiB
Output size: 51264 bytes = 4.774332046508789e-5 GiB
Reading 'out/F21EllCache'...   0.000906 seconds (251 allocations: 84.219 KiB)
ellmax: 1202
lmaxcache: 1202
fell[:,1,1] = Complex{Float64}[1.3482014726274674e-57 - 3.302141236118086e-73im, 1.357860004724329e-57 - 3.3257978169518355e-73im]
ell 1202, elapsed: 2.384185791015625e-5
ell 1201, elapsed: 0.0002541542053222656
ell 1200, elapsed: 0.0002319812774658203
ell 1199, elapsed: 0.00023102760314941406
ell 1198, elapsed: 0.0002319812774658203
ell 1002, elapsed: 0.007817983627319336
ell 1001, elapsed: 0.00024199485778808594
ell 1000, elapsed: 0.00023818016052246094
ell 999, elapsed: 0.00023603439331054688
ell 998, elapsed: 0.00023984909057617188
ell 902, elapsed: 0.003918170928955078
ell 901, elapsed: 0.0002951622009277344
ell 900, elapsed: 0.0002391338348388672
ell 899, elapsed: 0.00024008750915527344
ell 898, elapsed: 0.0002391338348388672
ell 802, elapsed: 0.004075050354003906
ell 801, elapsed: 0.00023317337036132812
ell 800, elapsed: 0.00022602081298828125
ell 799, elapsed: 0.0002269744873046875
ell 798, elapsed: 0.000225067138671875
ell 702, elapsed: 0.003840923309326172
ell 701, elapsed: 0.00023603439331054688
ell 700, elapsed: 0.00022983551025390625
ell 699, elapsed: 0.0002300739288330078
ell 698, elapsed: 0.0002300739288330078
ell 602, elapsed: 0.004127025604248047
ell 601, elapsed: 0.00027489662170410156
ell 600, elapsed: 0.0002410411834716797
ell 599, elapsed: 0.00024199485778808594
ell 598, elapsed: 0.00024008750915527344
ell 502, elapsed: 0.004024028778076172
ell 501, elapsed: 0.00024700164794921875
ell 500, elapsed: 0.00023818016052246094
ell 499, elapsed: 0.00023818016052246094
ell 498, elapsed: 0.00023603439331054688
ell 402, elapsed: 0.00407099723815918
ell 401, elapsed: 0.00024008750915527344
ell 400, elapsed: 0.00023603439331054688
ell 399, elapsed: 0.00023984909057617188
ell 398, elapsed: 0.0002651214599609375
ell 302, elapsed: 0.004050016403198242
ell 301, elapsed: 0.0002498626708984375
ell 300, elapsed: 0.00023794174194335938
ell 299, elapsed: 0.00023412704467773438
ell 298, elapsed: 0.00024199485778808594
ell 202, elapsed: 0.0040209293365478516
ell 201, elapsed: 0.00023698806762695312
ell 200, elapsed: 0.00023603439331054688
ell 199, elapsed: 0.0002288818359375
ell 198, elapsed: 0.00022912025451660156
ell 152, elapsed: 0.002012968063354492
ell 151, elapsed: 0.00023293495178222656
ell 150, elapsed: 0.0002300739288330078
ell 149, elapsed: 0.00023221969604492188
ell 148, elapsed: 0.00023412704467773438
ell 127, elapsed: 0.001180887222290039
ell 126, elapsed: 0.00023293495178222656
ell 125, elapsed: 0.0002841949462890625
ell 124, elapsed: 0.00023102760314941406
ell 123, elapsed: 0.00022912025451660156
ell 114, elapsed: 0.0005619525909423828
ell 113, elapsed: 0.00022482872009277344
ell 112, elapsed: 0.0002338886260986328
ell 111, elapsed: 0.00023603439331054688
ell 110, elapsed: 0.0002307891845703125
ell 102, elapsed: 0.000659942626953125
ell 101, elapsed: 0.00023508071899414062
ell 100, elapsed: 0.00022602081298828125
ell 99, elapsed: 0.00022912025451660156
ell 98, elapsed: 0.00023293495178222656
ell 97, elapsed: 0.00026297569274902344
ell 96, elapsed: 0.0003879070281982422
ell 95, elapsed: 0.0002548694610595703
ell 94, elapsed: 0.0003399848937988281
ell 93, elapsed: 0.0002589225769042969
ell 92, elapsed: 0.0003521442413330078
ell 91, elapsed: 0.0002570152282714844
ell 90, elapsed: 0.00034499168395996094
ell 89, elapsed: 0.0002548694610595703
ell 88, elapsed: 0.0003521442413330078
ell 87, elapsed: 0.00026106834411621094
ell 86, elapsed: 0.00035190582275390625
ell 85, elapsed: 0.0002620220184326172
ell 84, elapsed: 0.00035500526428222656
ell 83, elapsed: 0.00026917457580566406
ell 82, elapsed: 0.00036716461181640625
ell 81, elapsed: 0.00026607513427734375
ell 80, elapsed: 0.00036597251892089844
ell 79, elapsed: 0.0002770423889160156
ell 78, elapsed: 0.0004019737243652344
ell 77, elapsed: 0.0002849102020263672
ell 76, elapsed: 0.0004010200500488281
ell 75, elapsed: 0.0002799034118652344
ell 74, elapsed: 0.0003941059112548828
ell 73, elapsed: 0.0002930164337158203
ell 72, elapsed: 0.0004010200500488281
ell 71, elapsed: 0.0002818107604980469
ell 70, elapsed: 0.00039696693420410156
ell 69, elapsed: 0.00035119056701660156
ell 68, elapsed: 0.0004010200500488281
ell 67, elapsed: 0.0002770423889160156
ell 66, elapsed: 0.0003979206085205078
ell 65, elapsed: 0.00027489662170410156
ell 64, elapsed: 0.00037789344787597656
ell 63, elapsed: 0.0002720355987548828
ell 62, elapsed: 0.00038814544677734375
ell 61, elapsed: 0.00027298927307128906
ell 60, elapsed: 0.0004401206970214844
ell 59, elapsed: 0.0002720355987548828
ell 58, elapsed: 0.0003581047058105469
ell 57, elapsed: 0.00026106834411621094
ell 56, elapsed: 0.00035190582275390625
ell 55, elapsed: 0.0002579689025878906
ell 54, elapsed: 0.000347137451171875
ell 53, elapsed: 0.0002551078796386719
ell 52, elapsed: 0.00035500526428222656
ell 51, elapsed: 0.0002589225769042969
ell 50, elapsed: 0.0003638267517089844
ell 49, elapsed: 0.00026297569274902344
ell 48, elapsed: 0.00037407875061035156
ell 47, elapsed: 0.0002579689025878906
ell 46, elapsed: 0.0003619194030761719
ell 45, elapsed: 0.0002601146697998047
ell 44, elapsed: 0.0003829002380371094
ell 43, elapsed: 0.00026106834411621094
ell 42, elapsed: 0.00036787986755371094
ell 41, elapsed: 0.0002601146697998047
ell 40, elapsed: 0.0003559589385986328
ell 39, elapsed: 0.00026488304138183594
ell 38, elapsed: 0.0003638267517089844
ell 37, elapsed: 0.00026297569274902344
ell 36, elapsed: 0.0003809928894042969
ell 35, elapsed: 0.000270843505859375
ell 34, elapsed: 0.00035881996154785156
ell 33, elapsed: 0.00026607513427734375
ell 32, elapsed: 0.00036597251892089844
ell 31, elapsed: 0.00026798248291015625
ell 30, elapsed: 0.00036406517028808594
ell 29, elapsed: 0.0003190040588378906
ell 28, elapsed: 0.00037407875061035156
ell 27, elapsed: 0.00026798248291015625
ell 26, elapsed: 0.0003910064697265625
ell 25, elapsed: 0.00026702880859375
ell 24, elapsed: 0.00038504600524902344
ell 23, elapsed: 0.00026416778564453125
ell 22, elapsed: 0.00037097930908203125
ell 21, elapsed: 0.00026297569274902344
ell 20, elapsed: 0.00036907196044921875
ell 19, elapsed: 0.0002758502960205078
ell 18, elapsed: 0.0003609657287597656
ell 17, elapsed: 0.0002639293670654297
ell 16, elapsed: 0.0003771781921386719
ell 15, elapsed: 0.00026297569274902344
ell 14, elapsed: 0.0003669261932373047
ell 13, elapsed: 0.0002720355987548828
ell 12, elapsed: 0.00036907196044921875
ell 11, elapsed: 0.00026702880859375
ell 10, elapsed: 0.0003771781921386719
ell 9, elapsed: 0.00027298927307128906
ell 8, elapsed: 0.00038695335388183594
ell 7, elapsed: 0.00026702880859375
ell 6, elapsed: 0.0003910064697265625
ell 5, elapsed: 0.0002689361572265625
ell 4, elapsed: 0.0003769397735595703
ell 3, elapsed: 0.0002751350402832031
ell 2, elapsed: 0.0003941059112548828
ell 1, elapsed: 0.00026702880859375
ell 0, elapsed: 0.0004291534423828125
  0.102988 seconds (13.01 k allocations: 675.188 KiB)
elapsed: 0.00040602684020996094
step:          0.045056 sec (0 allocations: 0 byte, 0.0% gc time)
swapping:      0.000351 sec (0 allocations: 0 byte, 0.0% gc time)
calc_Mellell!: 0.000775 sec (0 allocations: 0 byte, 0.0% gc time)
  t0 :  0.000317 sec (0 allocations: 0 byte, 0.0% gc time)
  tm2 : 0.008834 sec (0 allocations: 0 byte, 0.0% gc time)
  tm2s: 0.000265 sec (0 allocations: 0 byte, 0.0% gc time)
  tm4 : 0.020089 sec (0 allocations: 0 byte, 0.0% gc time)
  tp2 : 0.0 sec (0 allocations: 0 byte, 0.0% gc time)
  tp2s: 0.0 sec (0 allocations: 0 byte, 0.0% gc time)
  tp4 : 0.0 sec (0 allocations: 0 byte, 0.0% gc time)
calc_wtdll!:   0.029842 sec (1.344 k allocations: 147.0 KB, 0.0% gc time)
calc_wljj!:    0.002439 sec (6 allocations: 96 byte, 0.0% gc time)
mult_prefac!:  0.0 sec (0 allocations: 0 byte, 0.0% gc time)
convert:       0.0 sec (0 allocations: 0 byte, 0.0% gc time)
write:         0.006689 sec (0 allocations: 0 byte, 0.0% gc time)
test_rand_2f1: 0.0 sec (0 allocations: 0 byte, 0.0% gc time)
Closing outfile out/Ml21-cache.bin...   0.019854 seconds
  0.000540 seconds (55 allocations: 28.531 KiB)
make_phi():   0.001558 seconds (8.20 k allocations: 238.250 KiB)
  0.011621 seconds (12.10 k allocations: 322.000 KiB)
tskip:       2.1e-5 sec (0 allocations: 0 byte, 0.0% gc time)
tread:       0.001962 sec (15 allocations: 2.062 KB, 0.0% gc time)
tmultphi:    0.000832 sec (0 allocations: 0 byte, 0.0% gc time)
tbrfft:      0.003683 sec (896 allocations: 42.0 KB, 0.0% gc time)
tmultprefac: 0.00158 sec (0 allocations: 0 byte, 0.0% gc time)
toutfunc:    0.00351 sec (10.528 k allocations: 206.5 KB, 0.0% gc time)
Testing R=0.9 ... passed
Calculating fmax: 
  dlrec    = 4
  dlrecRg1 = -4
  q=1.1, R=0.8:	  0.350551 seconds (144.74 k allocations: 68.044 MiB, 2.73% gc time)

  0.350849 seconds (144.81 k allocations: 68.077 MiB, 2.72% gc time)
ℓ = 1202
Δℓ = 4
ΔℓRg1 = -4
N = 1600
q = 1.1
kmin = 1.0e-5
kmax = 100000.00000000004
χ0 = 0.023029999999999995
RR = RR.tsv
ℓmax = ℓmax.bin
f21 = f21.bin
kmin = 1.0e-5
kmax = 100000.0
dlrec    = 4
dlrecRg1 = -4
Output size: 5741568 bytes = 0.005347251892089844 GiB
Output size: 51264 bytes = 4.774332046508789e-5 GiB
Reading 'out/F21EllCache'...   0.000747 seconds (251 allocations: 84.219 KiB)
ellmax: 1202
lmaxcache: 1202
fell[:,1,1] = Complex{Float64}[7.519068145690986e-120 - 1.8416405474382574e-135im, 7.541664537386155e-120 - 1.847175067190611e-135im]
ell 1202, elapsed: 1.8835067749023438e-5
ell 1201, elapsed: 0.00023698806762695312
ell 1200, elapsed: 0.0002231597900390625
ell 1199, elapsed: 0.00021886825561523438
ell 1198, elapsed: 0.00021791458129882812
ell 1002, elapsed: 0.007748126983642578
ell 1001, elapsed: 0.00024700164794921875
ell 1000, elapsed: 0.00023794174194335938
ell 999, elapsed: 0.00023794174194335938
ell 998, elapsed: 0.00024080276489257812
ell 902, elapsed: 0.004055023193359375
ell 901, elapsed: 0.00027680397033691406
ell 900, elapsed: 0.0002300739288330078
ell 899, elapsed: 0.000247955322265625
ell 898, elapsed: 0.000247955322265625
ell 802, elapsed: 0.0041201114654541016
ell 801, elapsed: 0.0002338886260986328
ell 800, elapsed: 0.0002231597900390625
ell 799, elapsed: 0.0002319812774658203
ell 798, elapsed: 0.00023484230041503906
ell 702, elapsed: 0.004023075103759766
ell 701, elapsed: 0.00026106834411621094
ell 700, elapsed: 0.00026607513427734375
ell 699, elapsed: 0.00023102760314941406
ell 698, elapsed: 0.0003180503845214844
ell 602, elapsed: 0.0039958953857421875
ell 601, elapsed: 0.00023603439331054688
ell 600, elapsed: 0.0002300739288330078
ell 599, elapsed: 0.0002319812774658203
ell 598, elapsed: 0.0002269744873046875
ell 502, elapsed: 0.004051923751831055
ell 501, elapsed: 0.0002739429473876953
ell 500, elapsed: 0.00025391578674316406
ell 499, elapsed: 0.00022602081298828125
ell 498, elapsed: 0.00023818016052246094
ell 402, elapsed: 0.003905057907104492
ell 401, elapsed: 0.00023794174194335938
ell 400, elapsed: 0.00022602081298828125
ell 399, elapsed: 0.00024199485778808594
ell 398, elapsed: 0.0002999305725097656
ell 302, elapsed: 0.0039060115814208984
ell 301, elapsed: 0.0002732276916503906
ell 300, elapsed: 0.00024700164794921875
ell 299, elapsed: 0.00023293495178222656
ell 298, elapsed: 0.0002288818359375
ell 202, elapsed: 0.004102945327758789
ell 201, elapsed: 0.00023794174194335938
ell 200, elapsed: 0.00022983551025390625
ell 199, elapsed: 0.00022292137145996094
ell 198, elapsed: 0.0002808570861816406
ell 152, elapsed: 0.0020749568939208984
ell 151, elapsed: 0.0002620220184326172
ell 150, elapsed: 0.0002219676971435547
ell 149, elapsed: 0.00021886825561523438
ell 148, elapsed: 0.00021910667419433594
ell 127, elapsed: 0.0011010169982910156
ell 126, elapsed: 0.00022292137145996094
ell 125, elapsed: 0.00029921531677246094
ell 124, elapsed: 0.00021791458129882812
ell 123, elapsed: 0.0002548694610595703
ell 114, elapsed: 0.0006070137023925781
ell 113, elapsed: 0.00027108192443847656
ell 112, elapsed: 0.000225067138671875
ell 111, elapsed: 0.00022101402282714844
ell 110, elapsed: 0.00022292137145996094
ell 102, elapsed: 0.0007359981536865234
ell 101, elapsed: 0.00024700164794921875
ell 100, elapsed: 0.0003249645233154297
ell 99, elapsed: 0.00022602081298828125
ell 98, elapsed: 0.0002219676971435547
ell 97, elapsed: 0.0002491474151611328
ell 96, elapsed: 0.00035881996154785156
ell 95, elapsed: 0.0002582073211669922
ell 94, elapsed: 0.00034308433532714844
ell 93, elapsed: 0.0002498626708984375
ell 92, elapsed: 0.00037407875061035156
ell 91, elapsed: 0.00029206275939941406
ell 90, elapsed: 0.0004169940948486328
ell 89, elapsed: 0.00025010108947753906
ell 88, elapsed: 0.0003428459167480469
ell 87, elapsed: 0.000247955322265625
ell 86, elapsed: 0.00033211708068847656
ell 85, elapsed: 0.00024700164794921875
ell 84, elapsed: 0.00032210350036621094
ell 83, elapsed: 0.00024700164794921875
ell 82, elapsed: 0.00033283233642578125
ell 81, elapsed: 0.0002460479736328125
ell 80, elapsed: 0.0003311634063720703
ell 79, elapsed: 0.0003108978271484375
ell 78, elapsed: 0.00034809112548828125
ell 77, elapsed: 0.00024390220642089844
ell 76, elapsed: 0.0003249645233154297
ell 75, elapsed: 0.00024008750915527344
ell 74, elapsed: 0.0003330707550048828
ell 73, elapsed: 0.000244140625
ell 72, elapsed: 0.00033402442932128906
ell 71, elapsed: 0.00024008750915527344
ell 70, elapsed: 0.0004661083221435547
ell 69, elapsed: 0.0002639293670654297
ell 68, elapsed: 0.0004420280456542969
ell 67, elapsed: 0.0002868175506591797
ell 66, elapsed: 0.0003590583801269531
ell 65, elapsed: 0.00026297569274902344
ell 64, elapsed: 0.0003750324249267578
ell 63, elapsed: 0.00027680397033691406
ell 62, elapsed: 0.00041985511779785156
ell 61, elapsed: 0.00027489662170410156
ell 60, elapsed: 0.0004088878631591797
ell 59, elapsed: 0.0003368854522705078
ell 58, elapsed: 0.00043702125549316406
ell 57, elapsed: 0.00024080276489257812
ell 56, elapsed: 0.0003390312194824219
ell 55, elapsed: 0.0002410411834716797
ell 54, elapsed: 0.0004119873046875
ell 53, elapsed: 0.00023818016052246094
ell 52, elapsed: 0.00037217140197753906
ell 51, elapsed: 0.0002429485321044922
ell 50, elapsed: 0.00033402442932128906
ell 49, elapsed: 0.0003521442413330078
ell 48, elapsed: 0.0005128383636474609
ell 47, elapsed: 0.00032901763916015625
ell 46, elapsed: 0.0004658699035644531
ell 45, elapsed: 0.0002951622009277344
ell 44, elapsed: 0.00042700767517089844
[...]
ell 782, elapsed: 0.0013608932495117188
ell 781, elapsed: 0.0005970001220703125
ell 780, elapsed: 0.0005950927734375
ell 779, elapsed: 0.0005829334259033203
ell 778, elapsed: 0.0005910396575927734
ell 772, elapsed: 0.00138092041015625
ell 771, elapsed: 0.0005910396575927734
ell 770, elapsed: 0.0005829334259033203
ell 769, elapsed: 0.0005698204040527344
ell 768, elapsed: 0.0006031990051269531
ell 762, elapsed: 0.0013861656188964844
ell 761, elapsed: 0.0005838871002197266
ell 760, elapsed: 0.0005238056182861328
ell 759, elapsed: 0.000553131103515625
ell 758, elapsed: 0.0005180835723876953
ell 752, elapsed: 0.0012710094451904297
ell 751, elapsed: 0.0007119178771972656
ell 750, elapsed: 0.0005278587341308594
ell 749, elapsed: 0.0009410381317138672
ell 748, elapsed: 0.0005271434783935547
ell 742, elapsed: 0.0012819766998291016
ell 741, elapsed: 0.0005249977111816406
ell 740, elapsed: 0.0005371570587158203
ell 739, elapsed: 0.0009829998016357422
ell 738, elapsed: 0.0005700588226318359
ell 732, elapsed: 0.0013430118560791016
ell 731, elapsed: 0.0005450248718261719
ell 730, elapsed: 0.0009059906005859375
ell 729, elapsed: 0.0006251335144042969
ell 728, elapsed: 0.0005400180816650391
ell 722, elapsed: 0.0013730525970458984
ell 721, elapsed: 0.0008721351623535156
ell 720, elapsed: 0.0005850791931152344
ell 719, elapsed: 0.0005650520324707031
ell 718, elapsed: 0.0005700588226318359
ell 712, elapsed: 0.0013229846954345703
ell 711, elapsed: 0.0009341239929199219
ell 710, elapsed: 0.0005168914794921875
ell 709, elapsed: 0.0005431175231933594
ell 708, elapsed: 0.0005347728729248047
ell 702, elapsed: 0.0021810531616210938
ell 701, elapsed: 0.0006110668182373047
ell 700, elapsed: 0.0005540847778320312
ell 699, elapsed: 0.0005359649658203125
ell 698, elapsed: 0.0005319118499755859
ell 692, elapsed: 0.0014638900756835938
ell 691, elapsed: 0.0005681514739990234
ell 690, elapsed: 0.0005850791931152344
ell 689, elapsed: 0.0005850791931152344
ell 688, elapsed: 0.0005850791931152344
ell 682, elapsed: 0.0017230510711669922
ell 681, elapsed: 0.0010759830474853516
ell 680, elapsed: 0.0012979507446289062
ell 679, elapsed: 0.001146078109741211
ell 678, elapsed: 0.0006861686706542969
ell 672, elapsed: 0.0015101432800292969
ell 671, elapsed: 0.00061798095703125
ell 670, elapsed: 0.0005750656127929688
ell 669, elapsed: 0.0005838871002197266
ell 668, elapsed: 0.0005898475646972656
ell 662, elapsed: 0.0013170242309570312
ell 661, elapsed: 0.0007081031799316406
ell 660, elapsed: 0.0005881786346435547
ell 659, elapsed: 0.0005841255187988281
ell 658, elapsed: 0.0006000995635986328
ell 652, elapsed: 0.0012621879577636719
ell 651, elapsed: 0.0006811618804931641
ell 650, elapsed: 0.0005419254302978516
ell 649, elapsed: 0.000553131103515625
ell 648, elapsed: 0.0005681514739990234
ell 642, elapsed: 0.0013761520385742188
ell 641, elapsed: 0.0007770061492919922
ell 640, elapsed: 0.0005657672882080078
ell 639, elapsed: 0.0005729198455810547
ell 638, elapsed: 0.0005619525909423828
ell 632, elapsed: 0.0015418529510498047
ell 631, elapsed: 0.0005590915679931641
ell 630, elapsed: 0.0005619525909423828
ell 629, elapsed: 0.0005779266357421875
ell 628, elapsed: 0.0005691051483154297
ell 622, elapsed: 0.0014531612396240234
ell 621, elapsed: 0.0005240440368652344
ell 620, elapsed: 0.0005309581756591797
ell 619, elapsed: 0.0005350112915039062
ell 618, elapsed: 0.0005228519439697266
ell 612, elapsed: 0.001577138900756836
ell 611, elapsed: 0.0005710124969482422
ell 610, elapsed: 0.0005650520324707031
ell 609, elapsed: 0.0006508827209472656
ell 608, elapsed: 0.0006098747253417969
ell 602, elapsed: 0.0014159679412841797
ell 601, elapsed: 0.0005600452423095703
ell 600, elapsed: 0.0005629062652587891
ell 599, elapsed: 0.0005550384521484375
ell 598, elapsed: 0.0005400180816650391
ell 592, elapsed: 0.0013310909271240234
ell 591, elapsed: 0.0005400180816650391
ell 590, elapsed: 0.0005340576171875
ell 589, elapsed: 0.0005729198455810547
ell 588, elapsed: 0.0005640983581542969
ell 582, elapsed: 0.0013759136199951172
ell 581, elapsed: 0.0005619525909423828
ell 580, elapsed: 0.0005509853363037109
ell 579, elapsed: 0.0005681514739990234
ell 578, elapsed: 0.0005700588226318359
ell 572, elapsed: 0.0014820098876953125
ell 571, elapsed: 0.0005860328674316406
ell 570, elapsed: 0.0005640983581542969
ell 569, elapsed: 0.000553131103515625
ell 568, elapsed: 0.0005590915679931641
ell 562, elapsed: 0.0016410350799560547
ell 561, elapsed: 0.0006051063537597656
ell 560, elapsed: 0.0005910396575927734
ell 559, elapsed: 0.0005679130554199219
ell 558, elapsed: 0.0005650520324707031
ell 552, elapsed: 0.0016129016876220703
ell 551, elapsed: 0.0006871223449707031
ell 550, elapsed: 0.0006961822509765625
ell 549, elapsed: 0.0005829334259033203
ell 548, elapsed: 0.0006670951843261719
ell 542, elapsed: 0.0013480186462402344
ell 541, elapsed: 0.0005419254302978516
ell 540, elapsed: 0.0005412101745605469
ell 539, elapsed: 0.0005278587341308594
ell 538, elapsed: 0.0006859302520751953
ell 532, elapsed: 0.001255035400390625
ell 531, elapsed: 0.0005700588226318359
ell 530, elapsed: 0.0005600452423095703
ell 529, elapsed: 0.0005540847778320312
ell 528, elapsed: 0.0007050037384033203
ell 522, elapsed: 0.0014820098876953125
ell 521, elapsed: 0.0006499290466308594
ell 520, elapsed: 0.0006091594696044922
ell 519, elapsed: 0.0006840229034423828
ell 518, elapsed: 0.0005218982696533203
ell 512, elapsed: 0.001219034194946289
ell 511, elapsed: 0.0005540847778320312
ell 510, elapsed: 0.0005278587341308594
ell 509, elapsed: 0.0007331371307373047
ell 508, elapsed: 0.0005481243133544922
ell 502, elapsed: 0.0013511180877685547
ell 501, elapsed: 0.0005350112915039062
ell 500, elapsed: 0.0005178451538085938
ell 499, elapsed: 0.0006949901580810547
ell 498, elapsed: 0.0005309581756591797
ell 492, elapsed: 0.0012440681457519531
ell 491, elapsed: 0.0006232261657714844
ell 490, elapsed: 0.0005931854248046875
ell 489, elapsed: 0.0006558895111083984
ell 488, elapsed: 0.0005080699920654297
ell 482, elapsed: 0.0012569427490234375
ell 481, elapsed: 0.0005190372467041016
ell 480, elapsed: 0.0005850791931152344
ell 479, elapsed: 0.0006771087646484375
ell 478, elapsed: 0.0004980564117431641
ell 472, elapsed: 0.0012760162353515625
ell 471, elapsed: 0.000514984130859375
ell 470, elapsed: 0.0005347728729248047
ell 469, elapsed: 0.0007600784301757812
ell 468, elapsed: 0.0006010532379150391
ell 462, elapsed: 0.0013499259948730469
ell 461, elapsed: 0.0005640983581542969
ell 460, elapsed: 0.0005369186401367188
ell 459, elapsed: 0.0007200241088867188
ell 458, elapsed: 0.0005490779876708984
ell 452, elapsed: 0.0012929439544677734
ell 451, elapsed: 0.0005500316619873047
ell 450, elapsed: 0.0005431175231933594
ell 449, elapsed: 0.0007078647613525391
ell 448, elapsed: 0.0005590915679931641
ell 442, elapsed: 0.0013079643249511719
ell 441, elapsed: 0.0005519390106201172
ell 440, elapsed: 0.0005550384521484375
ell 439, elapsed: 0.0007200241088867188
ell 438, elapsed: 0.0005619525909423828
ell 432, elapsed: 0.0012788772583007812
ell 431, elapsed: 0.0005331039428710938
ell 430, elapsed: 0.0005688667297363281
ell 429, elapsed: 0.0006949901580810547
ell 428, elapsed: 0.0005240440368652344
ell 422, elapsed: 0.0013079643249511719
ell 421, elapsed: 0.0005371570587158203
ell 420, elapsed: 0.0005240440368652344
ell 419, elapsed: 0.0006909370422363281
ell 418, elapsed: 0.0005490779876708984
ell 412, elapsed: 0.0012400150299072266
ell 411, elapsed: 0.0005321502685546875
ell 410, elapsed: 0.0006079673767089844
ell 409, elapsed: 0.0007221698760986328
ell 408, elapsed: 0.0006308555603027344
ell 402, elapsed: 0.0012371540069580078
ell 401, elapsed: 0.0005009174346923828
ell 400, elapsed: 0.0005061626434326172
ell 399, elapsed: 0.0006840229034423828
ell 398, elapsed: 0.0005030632019042969
ell 392, elapsed: 0.001363992691040039
ell 391, elapsed: 0.0005249977111816406
ell 390, elapsed: 0.000576019287109375
ell 389, elapsed: 0.0007748603820800781
ell 388, elapsed: 0.000492095947265625
ell 382, elapsed: 0.0012331008911132812
ell 381, elapsed: 0.0005919933319091797
ell 380, elapsed: 0.0005280971527099609
ell 379, elapsed: 0.0007758140563964844
ell 378, elapsed: 0.0005471706390380859
ell 372, elapsed: 0.0012722015380859375
ell 371, elapsed: 0.0005228519439697266
ell 370, elapsed: 0.0005409717559814453
ell 369, elapsed: 0.0007519721984863281
ell 368, elapsed: 0.0005562305450439453
ell 362, elapsed: 0.0013499259948730469
ell 361, elapsed: 0.0005490779876708984
ell 360, elapsed: 0.000492095947265625
ell 359, elapsed: 0.0006642341613769531
ell 358, elapsed: 0.0005218982696533203
ell 352, elapsed: 0.0012578964233398438
ell 351, elapsed: 0.000576019287109375
ell 350, elapsed: 0.0005249977111816406
ell 349, elapsed: 0.0008180141448974609
ell 348, elapsed: 0.0005500316619873047
ell 342, elapsed: 0.0012111663818359375
ell 341, elapsed: 0.0005118846893310547
ell 340, elapsed: 0.0004899501800537109
ell 339, elapsed: 0.0005509853363037109
ell 338, elapsed: 0.0005550384521484375
ell 332, elapsed: 0.001291036605834961
ell 331, elapsed: 0.0005600452423095703
ell 330, elapsed: 0.0004990100860595703
ell 329, elapsed: 0.0005919933319091797
ell 328, elapsed: 0.00049591064453125
ell 322, elapsed: 0.0012600421905517578
ell 321, elapsed: 0.0005109310150146484
ell 320, elapsed: 0.0005729198455810547
ell 319, elapsed: 0.0006000995635986328
ell 318, elapsed: 0.0005228519439697266
ell 312, elapsed: 0.0013539791107177734
ell 311, elapsed: 0.0005161762237548828
ell 310, elapsed: 0.000518798828125
ell 309, elapsed: 0.0006070137023925781
ell 308, elapsed: 0.0005338191986083984
ell 302, elapsed: 0.0012731552124023438
ell 301, elapsed: 0.0006339550018310547
ell 300, elapsed: 0.0006630420684814453
ell 299, elapsed: 0.0006079673767089844
ell 298, elapsed: 0.0005609989166259766
ell 292, elapsed: 0.001302957534790039
ell 291, elapsed: 0.0005438327789306641
ell 290, elapsed: 0.0005381107330322266
ell 289, elapsed: 0.0005719661712646484
ell 288, elapsed: 0.0005209445953369141
ell 282, elapsed: 0.0012700557708740234
ell 281, elapsed: 0.0005619525909423828
ell 280, elapsed: 0.0005238056182861328
ell 279, elapsed: 0.0005860328674316406
ell 278, elapsed: 0.0005249977111816406
ell 272, elapsed: 0.001238107681274414
ell 271, elapsed: 0.0005140304565429688
ell 270, elapsed: 0.0005409717559814453
ell 269, elapsed: 0.0006020069122314453
ell 268, elapsed: 0.0005478858947753906
ell 262, elapsed: 0.0013041496276855469
ell 261, elapsed: 0.0005328655242919922
ell 260, elapsed: 0.0005068778991699219
ell 259, elapsed: 0.0006091594696044922
ell 258, elapsed: 0.0005359649658203125
ell 252, elapsed: 0.0013151168823242188
ell 251, elapsed: 0.0005650520324707031
ell 250, elapsed: 0.0005450248718261719
ell 249, elapsed: 0.0005791187286376953
ell 248, elapsed: 0.0005218982696533203
ell 242, elapsed: 0.0012941360473632812
ell 241, elapsed: 0.0005140304565429688
ell 240, elapsed: 0.0005459785461425781
ell 239, elapsed: 0.0005300045013427734
ell 238, elapsed: 0.0005390644073486328
ell 232, elapsed: 0.0012481212615966797
ell 231, elapsed: 0.0005290508270263672
ell 230, elapsed: 0.0005497932434082031
ell 229, elapsed: 0.0005371570587158203
ell 228, elapsed: 0.0006110668182373047
ell 222, elapsed: 0.0012438297271728516
ell 221, elapsed: 0.0005230903625488281
ell 220, elapsed: 0.0005371570587158203
ell 219, elapsed: 0.0005218982696533203
ell 218, elapsed: 0.0005660057067871094
ell 212, elapsed: 0.0012221336364746094
ell 211, elapsed: 0.0005168914794921875
ell 210, elapsed: 0.0005331039428710938
ell 209, elapsed: 0.0005359649658203125
ell 208, elapsed: 0.0005679130554199219
ell 202, elapsed: 0.0012700557708740234
ell 201, elapsed: 0.0006420612335205078
ell 200, elapsed: 0.0005600452423095703
ell 199, elapsed: 0.0006158351898193359
ell 198, elapsed: 0.0007100105285644531
ell 192, elapsed: 0.0012898445129394531
ell 191, elapsed: 0.0004980564117431641
ell 190, elapsed: 0.0005199909210205078
ell 189, elapsed: 0.0005078315734863281
ell 188, elapsed: 0.0005590915679931641
ell 182, elapsed: 0.0014660358428955078
ell 181, elapsed: 0.0005929470062255859
ell 180, elapsed: 0.0006110668182373047
ell 179, elapsed: 0.0007059574127197266
ell 178, elapsed: 0.0005261898040771484
ell 172, elapsed: 0.0013267993927001953
ell 171, elapsed: 0.0005650520324707031
ell 170, elapsed: 0.0006899833679199219
ell 169, elapsed: 0.0005710124969482422
ell 168, elapsed: 0.0006029605865478516
ell 162, elapsed: 0.0014758110046386719
ell 161, elapsed: 0.0006439685821533203
ell 160, elapsed: 0.0006120204925537109
ell 159, elapsed: 0.0006659030914306641
ell 158, elapsed: 0.0005891323089599609
ell 152, elapsed: 0.0014259815216064453
ell 151, elapsed: 0.0006120204925537109
ell 150, elapsed: 0.0005660057067871094
ell 149, elapsed: 0.0005590915679931641
ell 148, elapsed: 0.0005810260772705078
ell 142, elapsed: 0.0014269351959228516
ell 141, elapsed: 0.0005741119384765625
ell 140, elapsed: 0.0005781650543212891
ell 139, elapsed: 0.0005640983581542969
ell 138, elapsed: 0.0005810260772705078
ell 132, elapsed: 0.0013890266418457031
ell 131, elapsed: 0.0005669593811035156
ell 130, elapsed: 0.0005679130554199219
ell 129, elapsed: 0.0007150173187255859
ell 128, elapsed: 0.0006060600280761719
ell 122, elapsed: 0.001344919204711914
ell 121, elapsed: 0.0005981922149658203
ell 120, elapsed: 0.000576019287109375
ell 119, elapsed: 0.0005710124969482422
ell 118, elapsed: 0.0005900859832763672
ell 112, elapsed: 0.0017058849334716797
ell 111, elapsed: 0.0006480216979980469
ell 110, elapsed: 0.0006849765777587891
ell 109, elapsed: 0.000614166259765625
ell 108, elapsed: 0.0007190704345703125
ell 102, elapsed: 0.0015380382537841797
ell 101, elapsed: 0.002240896224975586
ell 100, elapsed: 0.0026259422302246094
ell 99, elapsed: 0.002357006072998047
ell 98, elapsed: 0.002349853515625
ell 92, elapsed: 0.004876852035522461
ell 91, elapsed: 0.002357006072998047
ell 90, elapsed: 0.0024628639221191406
ell 89, elapsed: 0.002295970916748047
ell 88, elapsed: 0.002354145050048828
ell 82, elapsed: 0.004739999771118164
ell 81, elapsed: 0.002376079559326172
ell 80, elapsed: 0.0024268627166748047
ell 79, elapsed: 0.0023298263549804688
ell 78, elapsed: 0.002360820770263672
ell 72, elapsed: 0.0047760009765625
ell 71, elapsed: 0.002434968948364258
ell 70, elapsed: 0.0024611949920654297
ell 69, elapsed: 0.002290010452270508
ell 68, elapsed: 0.0028340816497802734
ell 62, elapsed: 0.004807949066162109
ell 61, elapsed: 0.002379179000854492
ell 60, elapsed: 0.0023889541625976562
ell 59, elapsed: 0.0026509761810302734
ell 58, elapsed: 0.0021729469299316406
ell 52, elapsed: 0.005181074142456055
ell 51, elapsed: 0.002190113067626953
ell 50, elapsed: 0.002214193344116211
ell 49, elapsed: 0.0021910667419433594
ell 48, elapsed: 0.0022351741790771484
ell 42, elapsed: 0.004686117172241211
ell 41, elapsed: 0.002207040786743164
ell 40, elapsed: 0.0021920204162597656
ell 39, elapsed: 0.002238035202026367
ell 38, elapsed: 0.0022430419921875
ell 32, elapsed: 0.00457310676574707
ell 31, elapsed: 0.002213001251220703
ell 30, elapsed: 0.0022029876708984375
ell 29, elapsed: 0.0021839141845703125
ell 28, elapsed: 0.0021729469299316406
ell 22, elapsed: 0.004916191101074219
ell 21, elapsed: 0.0022308826446533203
ell 20, elapsed: 0.0023241043090820312
ell 19, elapsed: 0.0021979808807373047
ell 18, elapsed: 0.002334117889404297
ell 12, elapsed: 0.004556894302368164
ell 11, elapsed: 0.002187967300415039
ell 10, elapsed: 0.0021889209747314453
ell 9, elapsed: 0.002157926559448242
ell 8, elapsed: 0.002218961715698242
  0.631993 seconds (74.16 k allocations: 12.051 MiB)
elapsed: 0.002959012985229492
step:          0.052234 sec (0 allocations: 0 byte, 0.0% gc time)
swapping:      0.000786 sec (0 allocations: 0 byte, 0.0% gc time)
calc_Mellell!: 0.021763 sec (0 allocations: 0 byte, 0.0% gc time)
  t0 :  0.008594 sec (0 allocations: 0 byte, 0.0% gc time)
  tm2 : 0.046078 sec (0 allocations: 0 byte, 0.0% gc time)
  tm2s: 0.00811 sec (0 allocations: 0 byte, 0.0% gc time)
  tm4 : 0.113594 sec (0 allocations: 0 byte, 0.0% gc time)
  tp2 : 0.0 sec (0 allocations: 0 byte, 0.0% gc time)
  tp2s: 0.0 sec (0 allocations: 0 byte, 0.0% gc time)
  tp4 : 0.0 sec (0 allocations: 0 byte, 0.0% gc time)
calc_wtdll!:   0.35104 sec (49.2 k allocations: 11.133 MB, 0.0% gc time)
calc_wljj!:    0.025816 sec (69 allocations: 1.078 KB, 0.0% gc time)
mult_prefac!:  0.0 sec (0 allocations: 0 byte, 0.0% gc time)
convert:       0.0 sec (0 allocations: 0 byte, 0.0% gc time)
write:         0.053619 sec (0 allocations: 0 byte, 0.0% gc time)
test_rand_2f1: 0.0 sec (0 allocations: 0 byte, 0.0% gc time)
Closing outfile out/MlCache/MlCache.bin...   0.000012 seconds
xi, l=0, nu=0:   0.365088 seconds (692.82 k allocations: 33.857 MiB, 3.31% gc time)
xi, l=0, nu=-2:  0.001648 seconds (150 allocations: 150.031 KiB)
Created 'out/xi.tsv'.
  q=1.1, R=0.6:	  0.775690 seconds (371.28 k allocations: 174.577 MiB, 4.00% gc time)
  q=1.1, R=0.7:	  0.880774 seconds (388.94 k allocations: 182.718 MiB, 3.87% gc time)
  q=1.1, R=0.8:	  0.910730 seconds (382.15 k allocations: 179.580 MiB, 2.31% gc time)
  q=1.1, R=0.9:	  0.869693 seconds (374.37 k allocations: 176.000 MiB, 2.29% gc time)
  q=1.1, R=0.998:	 17.624495 seconds (10.67 M allocations: 831.835 MiB, 0.48% gc time)
  q=1.1, R=1.0:	  0.030579 seconds (12.29 k allocations: 9.129 MiB, 6.92% gc time)

ℓ = 1000
Δℓ = 4
ΔℓRg1 = -4
N = 4096
q = 1.1
kmin = 1.0e-5
kmax = 1000.0
χ0 = 0.001
RR = RR.tsv
ℓmax = ℓmax.bin
f21 = f21.bin
kmin = 1.0e-5
kmax = 1000.0
dlrec    = 4
dlrecRg1 = -4
Output size: 1573632 bytes = 0.0014655590057373047 GiB
Output size: 786816 bytes = 0.0007327795028686523 GiB
Reading 'out/F21EllCache'...   0.001098 seconds (252 allocations: 533.094 KiB)
ellmax: 1002
lmaxcache: 1000
fell[:,1,1] = Complex{Float64}[1.7262928128202118e-224 - 4.2281979352226944e-240im, 1.7282693092099662e-224 - 4.233038955177176e-240im]
ell 1002, elapsed: 2.4080276489257812e-5
ell 1001, elapsed: 0.0005419254302978516
ell 1000, elapsed: 0.0006990432739257812
ell 999, elapsed: 0.0037729740142822266
ell 998, elapsed: 0.0036859512329101562
ell 44, elapsed: 0.585486888885498
ell 43, elapsed: 0.0036258697509765625
ell 42, elapsed: 0.0035970211029052734
ell 41, elapsed: 0.006315946578979492
ell 40, elapsed: 0.0038938522338867188
  0.617337 seconds (4.65 k allocations: 318.469 KiB)
elapsed: 0.004754066467285156
step:          0.58311 sec (0 allocations: 0 byte, 0.0% gc time)
swapping:      0.000588 sec (0 allocations: 0 byte, 0.0% gc time)
calc_Mellell!: 0.000901 sec (0 allocations: 0 byte, 0.0% gc time)
  t0 :  0.000449 sec (0 allocations: 0 byte, 0.0% gc time)
  tm2 : 0.0093 sec (0 allocations: 0 byte, 0.0% gc time)
  tm2s: 0.000402 sec (0 allocations: 0 byte, 0.0% gc time)
  tm4 : 0.016179 sec (0 allocations: 0 byte, 0.0% gc time)
  tp2 : 0.0 sec (0 allocations: 0 byte, 0.0% gc time)
  tp2s: 0.0 sec (0 allocations: 0 byte, 0.0% gc time)
  tp4 : 0.0 sec (0 allocations: 0 byte, 0.0% gc time)
calc_wtdll!:   0.026504 sec (480 allocations: 52.5 KB, 0.0% gc time)
calc_wljj!:    0.000973 sec (1 allocations: 16 byte, 0.0% gc time)
mult_prefac!:  0.0 sec (0 allocations: 0 byte, 0.0% gc time)
convert:       0.0 sec (0 allocations: 0 byte, 0.0% gc time)
write:         0.001446 sec (0 allocations: 0 byte, 0.0% gc time)
test_rand_2f1: 0.0 sec (0 allocations: 0 byte, 0.0% gc time)
Closing outfile out/MlCache/MlCache.bin...   0.001599 seconds
  0.398884 seconds (57 allocations: 67.438 KiB)
make_phi():   0.007095 seconds (83 allocations: 276.531 KiB)
  0.003148 seconds (108 allocations: 5.813 KiB)
tskip:       0.0 sec (0 allocations: 0 byte, 0.0% gc time)
tread:       0.000585 sec (15 allocations: 1.203 KB, 0.0% gc time)
tmultphi:    0.000238 sec (0 allocations: 0 byte, 0.0% gc time)
tbrfft:      0.001406 sec (96 allocations: 4.5 KB, 0.0% gc time)
tmultprefac: 0.000827 sec (0 allocations: 0 byte, 0.0% gc time)
toutfunc:    0.000232 sec (0 allocations: 0 byte, 0.0% gc time)
Created 'out/wl42_jj00.tsv'.
Created 'out/wl42_jj02.tsv'.
   Testing TwoFAST tests passed 
