 Resolving package versions...
 Installed Reexport ───────── v0.2.0
 Installed VersionParsing ─── v1.1.3
 Installed URIParser ──────── v0.4.0
 Installed Parsers ────────── v0.3.10
 Installed Conda ──────────── v1.3.0
 Installed BinDeps ────────── v0.8.10
 Installed JSON ───────────── v0.21.0
 Installed AbstractFFTs ───── v0.5.0
 Installed IncGammaBeta ───── v0.1.0
 Installed FFTW ───────────── v1.1.0
 Installed Compat ─────────── v2.2.0
 Installed SpecialFunctions ─ v0.8.0
 Installed BinaryProvider ─── v0.5.8
 Installed Nemo ───────────── v0.15.1
 Installed TwoFAST ────────── v0.1.0
 Installed AbstractAlgebra ── v0.7.1
  Updating `~/.julia/environments/v1.4/Project.toml`
  [0dd23c3e] + TwoFAST v0.1.0
  Updating `~/.julia/environments/v1.4/Manifest.toml`
  [c3fe647b] + AbstractAlgebra v0.7.1
  [621f4979] + AbstractFFTs v0.5.0
  [9e28174c] + BinDeps v0.8.10
  [b99e7846] + BinaryProvider v0.5.8
  [34da2185] + Compat v2.2.0
  [8f4d0f93] + Conda v1.3.0
  [7a1cc6ca] + FFTW v1.1.0
  [5087d2c0] + IncGammaBeta v0.1.0
  [682c06a0] + JSON v0.21.0
  [2edaba10] + Nemo v0.15.1
  [69de0a69] + Parsers v0.3.10
  [189a3867] + Reexport v0.2.0
  [276daf66] + SpecialFunctions v0.8.0
  [0dd23c3e] + TwoFAST v0.1.0
  [30578b45] + URIParser v0.4.0
  [81def892] + VersionParsing v1.1.3
  [2a0f44e3] + Base64 
  [ade2ca70] + Dates 
  [8bb1440f] + DelimitedFiles 
  [8ba89e20] + Distributed 
  [b77e0a4c] + InteractiveUtils 
  [76f85450] + LibGit2 
  [8f399da3] + Libdl 
  [37e2e46d] + LinearAlgebra 
  [56ddb016] + Logging 
  [d6f4376e] + Markdown 
  [a63ad114] + Mmap 
  [44cfe95a] + Pkg 
  [de0858da] + Printf 
  [3fa0cd96] + REPL 
  [9a3f8284] + Random 
  [ea8e919c] + SHA 
  [9e88b42a] + Serialization 
  [1a1011a3] + SharedArrays 
  [6462fe0b] + Sockets 
  [2f01184e] + SparseArrays 
  [10745b16] + Statistics 
  [8dfed614] + Test 
  [cf7118a7] + UUIDs 
  [4ec0a83e] + Unicode 
  Building Conda ───────────→ `~/.julia/packages/Conda/kLXeC/deps/build.log`
  Building FFTW ────────────→ `~/.julia/packages/FFTW/loJ3F/deps/build.log`
  Building SpecialFunctions → `~/.julia/packages/SpecialFunctions/ne2iw/deps/build.log`
  Building Nemo ────────────→ `~/.julia/packages/Nemo/qzx0m/deps/build.log`
   Testing TwoFAST
 Resolving package versions...
 Installed Dierckx ─ v0.4.1
  Building Dierckx → `~/.julia/packages/Dierckx/9SY4A/deps/build.log`
Status `/tmp/jl_OSgkpl/Manifest.toml`
  [c3fe647b] AbstractAlgebra v0.7.1
  [621f4979] AbstractFFTs v0.5.0
  [9e28174c] BinDeps v0.8.10
  [b99e7846] BinaryProvider v0.5.8
  [34da2185] Compat v2.2.0
  [8f4d0f93] Conda v1.3.0
  [39dd38d3] Dierckx v0.4.1
  [7a1cc6ca] FFTW v1.1.0
  [5087d2c0] IncGammaBeta v0.1.0
  [682c06a0] JSON v0.21.0
  [2edaba10] Nemo v0.15.1
  [69de0a69] Parsers v0.3.10
  [189a3867] Reexport v0.2.0
  [276daf66] SpecialFunctions v0.8.0
  [0dd23c3e] TwoFAST v0.1.0
  [30578b45] URIParser v0.4.0
  [81def892] VersionParsing v1.1.3
  [2a0f44e3] Base64  [`@stdlib/Base64`]
  [ade2ca70] Dates  [`@stdlib/Dates`]
  [8bb1440f] DelimitedFiles  [`@stdlib/DelimitedFiles`]
  [8ba89e20] Distributed  [`@stdlib/Distributed`]
  [b77e0a4c] InteractiveUtils  [`@stdlib/InteractiveUtils`]
  [76f85450] LibGit2  [`@stdlib/LibGit2`]
  [8f399da3] Libdl  [`@stdlib/Libdl`]
  [37e2e46d] LinearAlgebra  [`@stdlib/LinearAlgebra`]
  [56ddb016] Logging  [`@stdlib/Logging`]
  [d6f4376e] Markdown  [`@stdlib/Markdown`]
  [a63ad114] Mmap  [`@stdlib/Mmap`]
  [44cfe95a] Pkg  [`@stdlib/Pkg`]
  [de0858da] Printf  [`@stdlib/Printf`]
  [3fa0cd96] REPL  [`@stdlib/REPL`]
  [9a3f8284] Random  [`@stdlib/Random`]
  [ea8e919c] SHA  [`@stdlib/SHA`]
  [9e88b42a] Serialization  [`@stdlib/Serialization`]
  [1a1011a3] SharedArrays  [`@stdlib/SharedArrays`]
  [6462fe0b] Sockets  [`@stdlib/Sockets`]
  [2f01184e] SparseArrays  [`@stdlib/SparseArrays`]
  [10745b16] Statistics  [`@stdlib/Statistics`]
  [8dfed614] Test  [`@stdlib/Test`]
  [cf7118a7] UUIDs  [`@stdlib/UUIDs`]
  [4ec0a83e] Unicode  [`@stdlib/Unicode`]

Welcome to Nemo version 0.15.1

Nemo comes with absolutely no warranty whatsoever


Welcome to Nemo version 0.15.1

Nemo comes with absolutely no warranty whatsoever

Testing ξ(r), ℓ=0, ν=-1 ... passed
Testing ξ(r), ℓ=0, ν=0 ... passed
Testing ξ(r), ℓ=0, ν=1 ... passed
Testing ξ(r), ℓ=0, ν=2 ... passed
Testing ξ(r), ℓ=0, ν=3 ... passed
Testing ξ(r), ℓ=1, ν=0 ... passed
Testing ξ(r), ℓ=1, ν=1 ... passed
Testing ξ(r), ℓ=1, ν=2 ... passed
Testing ξ(r), ℓ=1, ν=3 ... passed
Testing ξ(r), ℓ=2, ν=-1 ... passed
Testing ξ(r), ℓ=2, ν=0 ... passed
Testing ξ(r), ℓ=2, ν=1 ... passed
Testing ξ(r), ℓ=2, ν=2 ... passed
Testing ξ(r), ℓ=2, ν=3 ... passed
Testing ξ(r), ℓ=3, ν=-1 ... passed
Testing ξ(r), ℓ=3, ν=0 ... passed
Testing ξ(r), ℓ=3, ν=1 ... passed
Testing ξ(r), ℓ=3, ν=2 ... passed
Testing ξ(r), ℓ=3, ν=3 ... passed
Testing ξ(r), ℓ=4, ν=-1 ... passed
Testing ξ(r), ℓ=4, ν=0 ... passed
Testing ξ(r), ℓ=4, ν=1 ... passed
Testing ξ(r), ℓ=4, ν=2 ... passed
Testing ξ(r), ℓ=4, ν=3 ... passed
Testing ξ(r) ... passed
Testing ξ′(r) ... passed
Testing ξ″(r) ... passed
Calculating fmax: 
  dlrec    = 4
  dlrecRg1 = -4
  q=1.1, R=1.1:	  4.850573 seconds (1.28 M allocations: 71.962 MiB, 1.25% gc time)

  4.897726 seconds (1.31 M allocations: 73.073 MiB, 1.24% gc time)
ℓ = 1202
Δℓ = 4
ΔℓRg1 = -4
N = 1600
q = 1.1
kmin = 1.0e-5
kmax = 100000.00000000004
χ0 = 0.023029999999999995
RR = RR.tsv
ℓmax = ℓmax.bin
f21 = f21.bin
kmin = 1.0e-5
kmax = 100000.0
dlrec    = 4
dlrecRg1 = -4
Output size: 5741568 bytes = 0.005347251892089844 GiB
Output size: 51264 bytes = 4.774332046508789e-5 GiB
Reading 'out/F21EllCache'...   0.584233 seconds (315.13 k allocations: 16.181 MiB)
ellmax: 1202
lmaxcache: 1202
fell[:,1,1] = Complex{Float64}[3.9583795592771634e-52 - 9.695233714158177e-68im, 3.990121772925759e-52 - 9.772979714843386e-68im]
ell 1202, elapsed: 0.0001919269561767578
ell 1201, elapsed: 2.4375338554382324
ell 1200, elapsed: 0.0006349086761474609
ell 1199, elapsed: 0.0005190372467041016
ell 1198, elapsed: 0.00047087669372558594
ell 1002, elapsed: 0.009183883666992188
ell 1001, elapsed: 0.0004849433898925781
ell 1000, elapsed: 0.0004868507385253906
ell 999, elapsed: 0.0004551410675048828
ell 998, elapsed: 0.00045013427734375
ell 902, elapsed: 0.004795074462890625
ell 901, elapsed: 0.00047397613525390625
ell 900, elapsed: 0.000476837158203125
ell 899, elapsed: 0.00047588348388671875
ell 898, elapsed: 0.0004839897155761719
ell 802, elapsed: 0.005074977874755859
ell 801, elapsed: 0.0004899501800537109
ell 800, elapsed: 0.0005040168762207031
ell 799, elapsed: 0.0005979537963867188
ell 798, elapsed: 0.0007119178771972656
ell 702, elapsed: 0.004930973052978516
ell 701, elapsed: 0.0005130767822265625
ell 700, elapsed: 0.0005321502685546875
ell 699, elapsed: 0.0004909038543701172
ell 698, elapsed: 0.0004818439483642578
ell 602, elapsed: 0.0052111148834228516
ell 601, elapsed: 0.0005209445953369141
ell 600, elapsed: 0.0004608631134033203
ell 599, elapsed: 0.00048613548278808594
ell 598, elapsed: 0.0005328655242919922
ell 502, elapsed: 0.0050258636474609375
ell 501, elapsed: 0.0005140304565429688
ell 500, elapsed: 0.0005390644073486328
ell 499, elapsed: 0.0004718303680419922
ell 498, elapsed: 0.0004639625549316406
ell 402, elapsed: 0.005187034606933594
ell 401, elapsed: 0.00047516822814941406
ell 400, elapsed: 0.00043511390686035156
ell 399, elapsed: 0.0004711151123046875
ell 398, elapsed: 0.0004379749298095703
ell 302, elapsed: 0.004933834075927734
ell 301, elapsed: 0.0004489421844482422
ell 300, elapsed: 0.0004570484161376953
ell 299, elapsed: 0.0004630088806152344
ell 298, elapsed: 0.0004420280456542969
ell 202, elapsed: 0.005218982696533203
ell 201, elapsed: 0.0004870891571044922
ell 200, elapsed: 0.00046896934509277344
ell 199, elapsed: 0.0004918575286865234
ell 198, elapsed: 0.0006120204925537109
ell 152, elapsed: 0.002718210220336914
ell 151, elapsed: 0.0005280971527099609
ell 150, elapsed: 0.0005068778991699219
ell 149, elapsed: 0.0005390644073486328
ell 148, elapsed: 0.0005168914794921875
ell 127, elapsed: 0.001786947250366211
ell 126, elapsed: 0.0004999637603759766
ell 125, elapsed: 0.0004889965057373047
ell 124, elapsed: 0.0004990100860595703
ell 123, elapsed: 0.0005249977111816406
ell 114, elapsed: 0.0009570121765136719
ell 113, elapsed: 0.0004930496215820312
ell 112, elapsed: 0.0004918575286865234
ell 111, elapsed: 0.0005390644073486328
ell 110, elapsed: 0.0005588531494140625
ell 102, elapsed: 0.001216888427734375
ell 101, elapsed: 0.0005679130554199219
ell 100, elapsed: 0.0005638599395751953
ell 99, elapsed: 0.00047016143798828125
ell 98, elapsed: 0.00047016143798828125
ell 97, elapsed: 0.0005891323089599609
ell 96, elapsed: 0.000782012939453125
ell 95, elapsed: 0.000576019287109375
ell 94, elapsed: 0.0007269382476806641
ell 93, elapsed: 0.0006079673767089844
ell 92, elapsed: 0.0007538795471191406
ell 91, elapsed: 0.0005130767822265625
ell 90, elapsed: 0.0007879734039306641
ell 89, elapsed: 0.0005300045013427734
ell 88, elapsed: 0.0007119178771972656
ell 87, elapsed: 0.0005509853363037109
ell 86, elapsed: 0.0007259845733642578
ell 85, elapsed: 0.0005619525909423828
ell 84, elapsed: 0.0007610321044921875
ell 83, elapsed: 0.0005679130554199219
ell 82, elapsed: 0.00074005126953125
ell 81, elapsed: 0.0005159378051757812
ell 80, elapsed: 0.0007338523864746094
ell 79, elapsed: 0.0005071163177490234
ell 78, elapsed: 0.0006318092346191406
ell 77, elapsed: 0.00048613548278808594
ell 76, elapsed: 0.00067901611328125
ell 75, elapsed: 0.0004878044128417969
ell 74, elapsed: 0.0007281303405761719
ell 73, elapsed: 0.0005049705505371094
ell 72, elapsed: 0.0006470680236816406
ell 71, elapsed: 0.0004780292510986328
ell 70, elapsed: 0.0007200241088867188
ell 69, elapsed: 0.0004830360412597656
ell 68, elapsed: 0.0006840229034423828
ell 67, elapsed: 0.000537872314453125
ell 66, elapsed: 0.0007920265197753906
ell 65, elapsed: 0.0005300045013427734
ell 64, elapsed: 0.0007479190826416016
ell 63, elapsed: 0.0005869865417480469
ell 62, elapsed: 0.0008280277252197266
ell 61, elapsed: 0.0005881786346435547
ell 60, elapsed: 0.0008368492126464844
ell 59, elapsed: 0.0006051063537597656
ell 58, elapsed: 0.0008039474487304688
ell 57, elapsed: 0.0005629062652587891
ell 56, elapsed: 0.0007951259613037109
ell 55, elapsed: 0.0006449222564697266
ell 54, elapsed: 0.0007920265197753906
ell 53, elapsed: 0.0006120204925537109
ell 52, elapsed: 0.0008001327514648438
ell 51, elapsed: 0.0005609989166259766
ell 50, elapsed: 0.000743865966796875
ell 49, elapsed: 0.0004909038543701172
ell 48, elapsed: 0.000865936279296875
ell 47, elapsed: 0.0005209445953369141
ell 46, elapsed: 0.0007460117340087891
ell 45, elapsed: 0.0005331039428710938
ell 44, elapsed: 0.0007231235504150391
ell 43, elapsed: 0.0005788803100585938
ell 42, elapsed: 0.0006978511810302734
ell 41, elapsed: 0.0005068778991699219
ell 40, elapsed: 0.0007231235504150391
ell 39, elapsed: 0.0005209445953369141
ell 38, elapsed: 0.0006988048553466797
ell 37, elapsed: 0.0004868507385253906
ell 36, elapsed: 0.0007460117340087891
ell 35, elapsed: 0.0005140304565429688
ell 34, elapsed: 0.0006639957427978516
ell 33, elapsed: 0.0004839897155761719
ell 32, elapsed: 0.0007760524749755859
ell 31, elapsed: 0.0005671977996826172
ell 30, elapsed: 0.0007839202880859375
ell 29, elapsed: 0.0005669593811035156
ell 28, elapsed: 0.0007040500640869141
ell 27, elapsed: 0.0006880760192871094
ell 26, elapsed: 0.0007131099700927734
ell 25, elapsed: 0.0004930496215820312
ell 24, elapsed: 0.0006999969482421875
ell 23, elapsed: 0.00046706199645996094
ell 22, elapsed: 0.0007078647613525391
ell 21, elapsed: 0.0005218982696533203
ell 20, elapsed: 0.0006880760192871094
ell 19, elapsed: 0.0005609989166259766
ell 18, elapsed: 0.0006930828094482422
ell 17, elapsed: 0.0004749298095703125
ell 16, elapsed: 0.0006678104400634766
ell 15, elapsed: 0.0005121231079101562
ell 14, elapsed: 0.0006890296936035156
ell 13, elapsed: 0.0005090236663818359
ell 12, elapsed: 0.0006768703460693359
ell 11, elapsed: 0.0005052089691162109
ell 10, elapsed: 0.0007090568542480469
ell 9, elapsed: 0.0005700588226318359
ell 8, elapsed: 0.0007760524749755859
ell 7, elapsed: 0.0004999637603759766
ell 6, elapsed: 0.0006928443908691406
ell 5, elapsed: 0.00047898292541503906
ell 4, elapsed: 0.0007150173187255859
ell 3, elapsed: 0.0006160736083984375
ell 2, elapsed: 0.0007190704345703125
ell 1, elapsed: 0.00048279762268066406
ell 0, elapsed: 0.0006818771362304688
  3.134102 seconds (1.88 M allocations: 92.042 MiB, 2.04% gc time)
elapsed: 0.001049041748046875
step:          0.881651 sec (479.087 k allocations: 23.788 MB, 3.62% gc time)
swapping:      0.000689 sec (0 allocations: 0 byte, 0.0% gc time)
calc_Mellell!: 0.606091 sec (372.594 k allocations: 18.455 MB, 5.29% gc time)
  t0 :  0.0 sec (0 allocations: 0 byte, 0.0% gc time)
  tm2 : 0.0 sec (0 allocations: 0 byte, 0.0% gc time)
  tm2s: 0.0 sec (0 allocations: 0 byte, 0.0% gc time)
  tm4 : 0.0 sec (0 allocations: 0 byte, 0.0% gc time)
  tp2 : 0.0 sec (0 allocations: 0 byte, 0.0% gc time)
  tp2s: 0.0 sec (0 allocations: 0 byte, 0.0% gc time)
  tp4 : 0.0 sec (0 allocations: 0 byte, 0.0% gc time)
calc_wtdll!:   1.064261 sec (526.586 k allocations: 26.418 MB, 0.0% gc time)
calc_wljj!:    0.003544 sec (6 allocations: 96 byte, 0.0% gc time)
mult_prefac!:  0.0 sec (0 allocations: 0 byte, 0.0% gc time)
convert:       0.0 sec (0 allocations: 0 byte, 0.0% gc time)
write:         0.011271 sec (0 allocations: 0 byte, 0.0% gc time)
test_rand_2f1: 0.0 sec (0 allocations: 0 byte, 0.0% gc time)
Closing outfile out/Ml21-cache.bin...   0.000238 seconds
  0.885109 seconds (7.96 k allocations: 387.906 KiB)
make_phi():   0.009901 seconds (8.19 k allocations: 237.828 KiB)
  0.218581 seconds (121.93 k allocations: 5.914 MiB)
tskip:       2.3e-5 sec (0 allocations: 0 byte, 0.0% gc time)
tread:       0.002646 sec (19 allocations: 2.172 KB, 0.0% gc time)
tmultphi:    0.041636 sec (26.142 k allocations: 1.344 MB, 0.0% gc time)
tbrfft:      0.003795 sec (896 allocations: 42.0 KB, 0.0% gc time)
tmultprefac: 0.00134 sec (0 allocations: 0 byte, 0.0% gc time)
toutfunc:    0.169077 sec (94.22 k allocations: 4.457 MB, 0.0% gc time)
Testing R=1.1 ... passed
Calculating fmax: 
  dlrec    = 4
  dlrecRg1 = -4
  q=1.1, R=1.0:	  0.001373 seconds (4.00 k allocations: 300.375 KiB)

  0.001706 seconds (4.04 k allocations: 335.062 KiB)
ℓ = 1202
Δℓ = 4
ΔℓRg1 = -4
N = 1600
q = 1.1
kmin = 1.0e-5
kmax = 100000.00000000004
χ0 = 0.023029999999999995
RR = RR.tsv
ℓmax = ℓmax.bin
f21 = f21.bin
kmin = 1.0e-5
kmax = 100000.0
dlrec    = 4
dlrecRg1 = -4
Output size: 61465536 bytes = 0.05724424123764038 GiB
Output size: 51264 bytes = 4.774332046508789e-5 GiB
Reading 'out/F21EllCache'...   0.001066 seconds (267 allocations: 84.656 KiB)
ellmax: 1202
lmaxcache: 1202
fell[:,1,1] = Complex{Float64}[809.6031528389767 - 1.9829558194077161e-13im, 0.0 + 0.0im]
ell 1202, elapsed: 8.296966552734375e-5
ell 1201, elapsed: 0.01763296127319336
ell 1200, elapsed: 0.00037384033203125
ell 1199, elapsed: 0.0003249645233154297
ell 1198, elapsed: 0.00035691261291503906
ell 1197, elapsed: 0.00045418739318847656
ell 1196, elapsed: 0.0003960132598876953
ell 1195, elapsed: 0.0005979537963867188
ell 1194, elapsed: 0.00037288665771484375
ell 1193, elapsed: 0.0005640983581542969
ell 1192, elapsed: 0.0003981590270996094
ell 1191, elapsed: 0.0006089210510253906
ell 1190, elapsed: 0.0004100799560546875
ell 1189, elapsed: 0.00057220458984375
ell 1188, elapsed: 0.0004200935363769531
ell 1187, elapsed: 0.0005660057067871094
ell 1186, elapsed: 0.0004010200500488281
ell 1185, elapsed: 0.0005459785461425781
ell 1184, elapsed: 0.0003829002380371094
ell 1183, elapsed: 0.0005099773406982422
ell 1182, elapsed: 0.00038695335388183594
ell 1181, elapsed: 0.00047206878662109375
ell 1180, elapsed: 0.0003788471221923828
ell 1179, elapsed: 0.0004990100860595703
ell 1178, elapsed: 0.0003669261932373047
ell 1177, elapsed: 0.0004909038543701172
ell 1176, elapsed: 0.0003509521484375
ell 1175, elapsed: 0.0004811286926269531
ell 1174, elapsed: 0.00035691261291503906
ell 1173, elapsed: 0.000514984130859375
ell 1172, elapsed: 0.0003650188446044922
ell 1171, elapsed: 0.0005171298980712891
ell 1170, elapsed: 0.0003609657287597656
ell 1169, elapsed: 0.0005190372467041016
ell 1168, elapsed: 0.0003509521484375
ell 1167, elapsed: 0.0005080699920654297
ell 1166, elapsed: 0.00039315223693847656
ell 1165, elapsed: 0.00047397613525390625
ell 1164, elapsed: 0.0003590583801269531
ell 1163, elapsed: 0.0005331039428710938
ell 1162, elapsed: 0.0003719329833984375
ell 1161, elapsed: 0.0005359649658203125
ell 1160, elapsed: 0.0003559589385986328
ell 1159, elapsed: 0.0006279945373535156
ell 1158, elapsed: 0.0003590583801269531
ell 1157, elapsed: 0.0005540847778320312
ell 1156, elapsed: 0.00036787986755371094
ell 1155, elapsed: 0.0005090236663818359
ell 1154, elapsed: 0.00033092498779296875
ell 1153, elapsed: 0.00048804283142089844
ell 1152, elapsed: 0.00040602684020996094
ell 1151, elapsed: 0.0004830360412597656
ell 1150, elapsed: 0.0003249645233154297
ell 1149, elapsed: 0.00047707557678222656
ell 1148, elapsed: 0.0003368854522705078
ell 1147, elapsed: 0.00045299530029296875
ell 1146, elapsed: 0.00032806396484375
ell 1145, elapsed: 0.0004608631134033203
ell 1144, elapsed: 0.00037097930908203125
ell 1143, elapsed: 0.00043892860412597656
ell 1142, elapsed: 0.00033402442932128906
ell 1141, elapsed: 0.00055694580078125
ell 1140, elapsed: 0.00033593177795410156
ell 1139, elapsed: 0.0004611015319824219
ell 1138, elapsed: 0.0005309581756591797
ell 1137, elapsed: 0.0004849433898925781
ell 1136, elapsed: 0.0003650188446044922
ell 1135, elapsed: 0.00046181678771972656
ell 1134, elapsed: 0.00032401084899902344
ell 1133, elapsed: 0.0004329681396484375
ell 1132, elapsed: 0.00032806396484375
ell 1131, elapsed: 0.00048804283142089844
ell 1130, elapsed: 0.0003161430358886719
ell 1129, elapsed: 0.0004661083221435547
ell 1128, elapsed: 0.00033402442932128906
ell 1127, elapsed: 0.0004999637603759766
ell 1126, elapsed: 0.00031495094299316406
ell 1125, elapsed: 0.0005021095275878906
ell 1124, elapsed: 0.0003409385681152344
ell 1123, elapsed: 0.00043487548828125
ell 1122, elapsed: 0.0003139972686767578
ell 1121, elapsed: 0.0004360675811767578
ell 1120, elapsed: 0.00031495094299316406
ell 1119, elapsed: 0.0004489421844482422
ell 1118, elapsed: 0.00037407875061035156
ell 1117, elapsed: 0.0005359649658203125
ell 1116, elapsed: 0.0004229545593261719
ell 1115, elapsed: 0.00043010711669921875
ell 1114, elapsed: 0.0003230571746826172
ell 1113, elapsed: 0.00045800209045410156
ell 1112, elapsed: 0.0003819465637207031
ell 1111, elapsed: 0.0005099773406982422
ell 1110, elapsed: 0.0003991127014160156
ell 1109, elapsed: 0.0005249977111816406
ell 1108, elapsed: 0.00037407875061035156
ell 1107, elapsed: 0.0005648136138916016
ell 1106, elapsed: 0.00032901763916015625
ell 1105, elapsed: 0.0008130073547363281
ell 1104, elapsed: 0.0003540515899658203
ell 1103, elapsed: 0.00047397613525390625
ell 1102, elapsed: 0.0003380775451660156
ell 1101, elapsed: 0.00046706199645996094
ell 1100, elapsed: 0.00034117698669433594
ell 1099, elapsed: 0.0004520416259765625
ell 1098, elapsed: 0.0003261566162109375
ell 1097, elapsed: 0.00044798851013183594
ell 1096, elapsed: 0.0003421306610107422
ell 1095, elapsed: 0.00043582916259765625
ell 1094, elapsed: 0.00032210350036621094
ell 1093, elapsed: 0.0005340576171875
ell 1092, elapsed: 0.0003509521484375
ell 1091, elapsed: 0.00047087669372558594
ell 1090, elapsed: 0.0003421306610107422
ell 1089, elapsed: 0.0005178451538085938
ell 1088, elapsed: 0.0005750656127929688
ell 1087, elapsed: 0.0006589889526367188
ell 1086, elapsed: 0.00044798851013183594
ell 1085, elapsed: 0.000640869140625
ell 1084, elapsed: 0.0005209445953369141
ell 1083, elapsed: 0.0006189346313476562
ell 1082, elapsed: 0.0005939006805419922
ell 1081, elapsed: 0.0006430149078369141
ell 1080, elapsed: 0.0006260871887207031
ell 1079, elapsed: 0.0011599063873291016
ell 1078, elapsed: 0.0004150867462158203
ell 1077, elapsed: 0.0005171298980712891
ell 1076, elapsed: 0.0003750324249267578
ell 1075, elapsed: 0.0005199909210205078
ell 1074, elapsed: 0.00036907196044921875
ell 1073, elapsed: 0.0005080699920654297
ell 1072, elapsed: 0.0003750324249267578
ell 1071, elapsed: 0.0005681514739990234
ell 1070, elapsed: 0.0003819465637207031
ell 1069, elapsed: 0.0004928112030029297
ell 1068, elapsed: 0.00037789344787597656
ell 1067, elapsed: 0.0006220340728759766
ell 1066, elapsed: 0.0004189014434814453
ell 1065, elapsed: 0.0006101131439208984
ell 1064, elapsed: 0.0004088878631591797
ell 1063, elapsed: 0.0005879402160644531
ell 1062, elapsed: 0.00037407875061035156
ell 1061, elapsed: 0.0005679130554199219
ell 1060, elapsed: 0.0004341602325439453
ell 1059, elapsed: 0.0006070137023925781
ell 1058, elapsed: 0.0004639625549316406
ell 1057, elapsed: 0.0005919933319091797
ell 1056, elapsed: 0.0004119873046875
ell 1055, elapsed: 0.000614166259765625
ell 1054, elapsed: 0.0004420280456542969
ell 1053, elapsed: 0.0006580352783203125
ell 1052, elapsed: 0.0004100799560546875
ell 1051, elapsed: 0.0006129741668701172
ell 1050, elapsed: 0.0004210472106933594
ell 1049, elapsed: 0.0005800724029541016
ell 1048, elapsed: 0.0004119873046875
ell 1047, elapsed: 0.0006060600280761719
ell 1046, elapsed: 0.013826847076416016
ell 1045, elapsed: 0.0005919933319091797
ell 1044, elapsed: 0.016911029815673828
ell 1043, elapsed: 0.0006308555603027344
ell 1042, elapsed: 0.00038313865661621094
ell 1041, elapsed: 0.0005159378051757812
ell 1040, elapsed: 0.00037097930908203125
ell 1039, elapsed: 0.0005638599395751953
ell 1038, elapsed: 0.0005469322204589844
ell 1037, elapsed: 0.0005679130554199219
ell 1036, elapsed: 0.00037288665771484375
ell 1035, elapsed: 0.0004918575286865234
ell 1034, elapsed: 0.00042700767517089844
ell 1033, elapsed: 0.0005848407745361328
ell 1032, elapsed: 0.00036907196044921875
ell 1031, elapsed: 0.0005598068237304688
ell 1030, elapsed: 0.0003829002380371094
ell 1029, elapsed: 0.0005381107330322266
ell 1028, elapsed: 0.00039505958557128906
ell 1027, elapsed: 0.0005750656127929688
ell 1026, elapsed: 0.0003669261932373047
ell 1025, elapsed: 0.0005590915679931641
ell 1024, elapsed: 0.00037097930908203125
ell 1023, elapsed: 0.0005490779876708984
ell 1022, elapsed: 0.0003769397735595703
ell 1021, elapsed: 0.0005099773406982422
ell 1020, elapsed: 0.0003612041473388672
ell 1019, elapsed: 0.0005331039428710938
ell 1018, elapsed: 0.0004048347473144531
ell 1017, elapsed: 0.0005521774291992188
ell 1016, elapsed: 0.0003838539123535156
ell 1015, elapsed: 0.0005629062652587891
ell 1014, elapsed: 0.0003829002380371094
ell 1013, elapsed: 0.0006818771362304688
ell 1012, elapsed: 0.0004220008850097656
ell 1011, elapsed: 0.0006799697875976562
ell 1010, elapsed: 0.0003681182861328125
ell 1009, elapsed: 0.0005328655242919922
ell 1008, elapsed: 0.00037217140197753906
ell 1007, elapsed: 0.0005099773406982422
ell 1006, elapsed: 0.00037598609924316406
ell 1005, elapsed: 0.0005362033843994141
ell 1004, elapsed: 0.0003829002380371094
ell 1003, elapsed: 0.0005359649658203125
ell 1002, elapsed: 0.00036406517028808594
ell 1001, elapsed: 0.0005059242248535156
ell 1000, elapsed: 0.0003879070281982422
ell 999, elapsed: 0.0005290508270263672
ell 998, elapsed: 0.002212047576904297
ell 997, elapsed: 0.0007181167602539062
ell 996, elapsed: 0.00038695335388183594
ell 995, elapsed: 0.0005309581756591797
ell 994, elapsed: 0.0003669261932373047
ell 993, elapsed: 0.0006499290466308594
ell 992, elapsed: 0.0004010200500488281
ell 991, elapsed: 0.0005500316619873047
ell 990, elapsed: 0.00038504600524902344
ell 989, elapsed: 0.0005781650543212891
ell 988, elapsed: 0.0005340576171875
ell 987, elapsed: 0.0005240440368652344
ell 986, elapsed: 0.0003478527069091797
ell 985, elapsed: 0.0005221366882324219
ell 984, elapsed: 0.000492095947265625
ell 983, elapsed: 0.0007259845733642578
ell 982, elapsed: 0.000492095947265625
ell 981, elapsed: 0.0006439685821533203
ell 980, elapsed: 0.00044798851013183594
ell 979, elapsed: 0.00055694580078125
ell 978, elapsed: 0.0004329681396484375
ell 977, elapsed: 0.0005819797515869141
ell 976, elapsed: 0.0004048347473144531
ell 975, elapsed: 0.0005359649658203125
ell 974, elapsed: 0.0003859996795654297
ell 973, elapsed: 0.0006148815155029297
ell 972, elapsed: 0.0003609657287597656
ell 971, elapsed: 0.00048279762268066406
ell 970, elapsed: 0.00033092498779296875
ell 969, elapsed: 0.0007081031799316406
ell 968, elapsed: 0.0004930496215820312
ell 967, elapsed: 0.0005249977111816406
ell 966, elapsed: 0.00038886070251464844
ell 965, elapsed: 0.00047087669372558594
ell 964, elapsed: 0.0003509521484375
ell 963, elapsed: 0.0005190372467041016
ell 962, elapsed: 0.0003371238708496094
ell 961, elapsed: 0.0005919933319091797
ell 960, elapsed: 0.0005319118499755859
ell 959, elapsed: 0.0006899833679199219
ell 958, elapsed: 0.00043201446533203125
ell 957, elapsed: 0.0005199909210205078
ell 956, elapsed: 0.0003631114959716797
ell 955, elapsed: 0.0005559921264648438
ell 954, elapsed: 0.0003731250762939453
ell 953, elapsed: 0.000514984130859375
ell 952, elapsed: 0.00037789344787597656
ell 951, elapsed: 0.0006611347198486328
ell 950, elapsed: 0.0009357929229736328
ell 949, elapsed: 0.000576019287109375
ell 948, elapsed: 0.0003829002380371094
ell 947, elapsed: 0.0005161762237548828
ell 946, elapsed: 0.0003681182861328125
ell 945, elapsed: 0.0005230903625488281
ell 944, elapsed: 0.00035691261291503906
ell 943, elapsed: 0.0005559921264648438
ell 942, elapsed: 0.0004010200500488281
ell 941, elapsed: 0.0007131099700927734
ell 940, elapsed: 0.0004420280456542969
ell 939, elapsed: 0.0005629062652587891
ell 938, elapsed: 0.0003790855407714844
ell 937, elapsed: 0.0005390644073486328
ell 936, elapsed: 0.0004820823669433594
ell 935, elapsed: 0.0008170604705810547
ell 934, elapsed: 0.0004451274871826172
ell 933, elapsed: 0.0007619857788085938
ell 932, elapsed: 0.00045299530029296875
ell 931, elapsed: 0.0009069442749023438
ell 930, elapsed: 0.0004830360412597656
ell 929, elapsed: 0.0005979537963867188
ell 928, elapsed: 0.0004010200500488281
ell 927, elapsed: 0.0006091594696044922
ell 926, elapsed: 0.00040793418884277344
ell 925, elapsed: 0.0006468296051025391
ell 924, elapsed: 0.00036787986755371094
ell 923, elapsed: 0.0006620883941650391
ell 922, elapsed: 0.00037598609924316406
ell 921, elapsed: 0.0005180835723876953
ell 920, elapsed: 0.00036907196044921875
ell 919, elapsed: 0.0006389617919921875
ell 918, elapsed: 0.0003859996795654297
ell 917, elapsed: 0.0005691051483154297
ell 916, elapsed: 0.00037097930908203125
ell 915, elapsed: 0.0005331039428710938
ell 914, elapsed: 0.0003688335418701172
ell 913, elapsed: 0.0005037784576416016
ell 912, elapsed: 0.0003859996795654297
ell 911, elapsed: 0.0005068778991699219
ell 910, elapsed: 0.00036597251892089844
ell 909, elapsed: 0.00047707557678222656
ell 908, elapsed: 0.0003669261932373047
ell 907, elapsed: 0.0005450248718261719
ell 906, elapsed: 0.00036907196044921875
ell 905, elapsed: 0.0005919933319091797
ell 904, elapsed: 0.0003688335418701172
ell 903, elapsed: 0.0005218982696533203
ell 902, elapsed: 0.0003948211669921875
ell 901, elapsed: 0.0005681514739990234
ell 900, elapsed: 0.00038814544677734375
ell 899, elapsed: 0.0005240440368652344
ell 898, elapsed: 0.0004410743713378906
ell 897, elapsed: 0.0005431175231933594
ell 896, elapsed: 0.0003979206085205078
ell 895, elapsed: 0.00049591064453125
ell 894, elapsed: 0.0003960132598876953
ell 893, elapsed: 0.0005021095275878906
ell 892, elapsed: 0.0003528594970703125
ell 891, elapsed: 0.0005669593811035156
ell 890, elapsed: 0.00034689903259277344
ell 889, elapsed: 0.0004830360412597656
ell 888, elapsed: 0.00039315223693847656
ell 887, elapsed: 0.0006010532379150391
ell 886, elapsed: 0.0003809928894042969
ell 885, elapsed: 0.0005691051483154297
ell 884, elapsed: 0.0003790855407714844
ell 883, elapsed: 0.0006539821624755859
ell 882, elapsed: 0.0003840923309326172
ell 881, elapsed: 0.0005581378936767578
ell 880, elapsed: 0.00041103363037109375
ell 879, elapsed: 0.0005500316619873047
ell 878, elapsed: 0.0005011558532714844
ell 877, elapsed: 0.0006480216979980469
ell 876, elapsed: 0.0003719329833984375
ell 875, elapsed: 0.0006189346313476562
ell 874, elapsed: 0.0004258155822753906
ell 873, elapsed: 0.0005300045013427734
ell 872, elapsed: 0.0004558563232421875
ell 871, elapsed: 0.0005950927734375
ell 870, elapsed: 0.0003809928894042969
ell 869, elapsed: 0.0006120204925537109
ell 868, elapsed: 0.00039505958557128906
ell 867, elapsed: 0.0005929470062255859
ell 866, elapsed: 0.0003688335418701172
ell 865, elapsed: 0.0005979537963867188
ell 864, elapsed: 0.00037288665771484375
ell 863, elapsed: 0.0006270408630371094
ell 862, elapsed: 0.0003921985626220703
ell 861, elapsed: 0.0005750656127929688
ell 860, elapsed: 0.0003809928894042969
ell 859, elapsed: 0.0006511211395263672
ell 858, elapsed: 0.00037217140197753906
ell 857, elapsed: 0.0005700588226318359
ell 856, elapsed: 0.0004100799560546875
ell 855, elapsed: 0.0005249977111816406
ell 854, elapsed: 0.00039386749267578125
ell 853, elapsed: 0.0006129741668701172
ell 852, elapsed: 0.0004150867462158203
ell 851, elapsed: 0.0005891323089599609
ell 850, elapsed: 0.00035119056701660156
ell 849, elapsed: 0.000518798828125
ell 848, elapsed: 0.0003509521484375
ell 847, elapsed: 0.0005319118499755859
ell 846, elapsed: 0.000431060791015625
ell 845, elapsed: 0.0006229877471923828
ell 844, elapsed: 0.00042891502380371094
ell 843, elapsed: 0.0005011558532714844
ell 842, elapsed: 0.0003631114959716797
ell 841, elapsed: 0.000476837158203125
ell 840, elapsed: 0.0003390312194824219
ell 839, elapsed: 0.0005998611450195312
ell 838, elapsed: 0.0003800392150878906
ell 837, elapsed: 0.0006029605865478516
ell 836, elapsed: 0.0004119873046875
ell 835, elapsed: 0.000659942626953125
ell 834, elapsed: 0.0003750324249267578
ell 833, elapsed: 0.0005769729614257812
ell 832, elapsed: 0.00035309791564941406
ell 831, elapsed: 0.0004909038543701172
ell 830, elapsed: 0.0003428459167480469
ell 829, elapsed: 0.0004730224609375
ell 828, elapsed: 0.00037097930908203125
ell 827, elapsed: 0.0005290508270263672
ell 826, elapsed: 0.0004220008850097656
ell 825, elapsed: 0.0005788803100585938
ell 824, elapsed: 0.000370025634765625
ell 823, elapsed: 0.0005121231079101562
ell 822, elapsed: 0.0003581047058105469
ell 821, elapsed: 0.0005168914794921875
ell 820, elapsed: 0.0003650188446044922
ell 819, elapsed: 0.0005910396575927734
ell 818, elapsed: 0.0003719329833984375
ell 817, elapsed: 0.0006051063537597656
ell 816, elapsed: 0.000370025634765625
ell 815, elapsed: 0.0005130767822265625
ell 814, elapsed: 0.00035500526428222656
ell 813, elapsed: 0.0005888938903808594
ell 812, elapsed: 0.00036597251892089844
ell 811, elapsed: 0.0006101131439208984
ell 810, elapsed: 0.0004029273986816406
ell 809, elapsed: 0.0004968643188476562
ell 808, elapsed: 0.00037598609924316406
ell 807, elapsed: 0.0005171298980712891
ell 806, elapsed: 0.0003559589385986328
ell 805, elapsed: 0.000476837158203125
ell 804, elapsed: 0.0003590583801269531
ell 803, elapsed: 0.00049591064453125
ell 802, elapsed: 0.0003647804260253906
ell 801, elapsed: 0.0005190372467041016
ell 800, elapsed: 0.0003528594970703125
ell 799, elapsed: 0.00049591064453125
ell 798, elapsed: 0.00037598609924316406
ell 797, elapsed: 0.0005619525909423828
ell 796, elapsed: 0.0004000663757324219
ell 795, elapsed: 0.00048613548278808594
ell 794, elapsed: 0.0003800392150878906
ell 793, elapsed: 0.0005319118499755859
ell 792, elapsed: 0.00035190582275390625
ell 791, elapsed: 0.0004811286926269531
ell 790, elapsed: 0.00038695335388183594
ell 789, elapsed: 0.0005340576171875
ell 788, elapsed: 0.00034809112548828125
ell 787, elapsed: 0.0004999637603759766
ell 786, elapsed: 0.0003600120544433594
ell 785, elapsed: 0.0004968643188476562
ell 784, elapsed: 0.00034689903259277344
ell 783, elapsed: 0.0005209445953369141
ell 782, elapsed: 0.00036406517028808594
ell 781, elapsed: 0.0005009174346923828
ell 780, elapsed: 0.0003509521484375
ell 779, elapsed: 0.000476837158203125
ell 778, elapsed: 0.00034689903259277344
ell 777, elapsed: 0.0005021095275878906
ell 776, elapsed: 0.0003600120544433594
ell 775, elapsed: 0.0006620883941650391
ell 774, elapsed: 0.0003769397735595703
ell 773, elapsed: 0.0004990100860595703
ell 772, elapsed: 0.0003631114959716797
ell 771, elapsed: 0.0005121231079101562
ell 770, elapsed: 0.0003809928894042969
ell 769, elapsed: 0.0005061626434326172
ell 768, elapsed: 0.0004169940948486328
ell 767, elapsed: 0.0004980564117431641
ell 766, elapsed: 0.00032901763916015625
ell 765, elapsed: 0.0004661083221435547
ell 764, elapsed: 0.0003249645233154297
ell 763, elapsed: 0.0005209445953369141
ell 762, elapsed: 0.00033092498779296875
ell 761, elapsed: 0.0005431175231933594
ell 760, elapsed: 0.00030994415283203125
ell 759, elapsed: 0.00042891502380371094
ell 758, elapsed: 0.0003108978271484375
ell 757, elapsed: 0.00046896934509277344
ell 756, elapsed: 0.0003170967102050781
ell 755, elapsed: 0.0004329681396484375
ell 754, elapsed: 0.00030994415283203125
ell 753, elapsed: 0.00041985511779785156
ell 752, elapsed: 0.0003490447998046875
ell 751, elapsed: 0.0005369186401367188
ell 750, elapsed: 0.0003218650817871094
ell 749, elapsed: 0.0004520416259765625
ell 748, elapsed: 0.0003199577331542969
ell 747, elapsed: 0.0004360675811767578
ell 746, elapsed: 0.00031495094299316406
ell 745, elapsed: 0.00043892860412597656
ell 744, elapsed: 0.00030803680419921875
ell 743, elapsed: 0.00045990943908691406
ell 742, elapsed: 0.0003941059112548828
ell 741, elapsed: 0.00043892860412597656
ell 740, elapsed: 0.0003218650817871094
ell 739, elapsed: 0.0004410743713378906
ell 738, elapsed: 0.00030493736267089844
ell 737, elapsed: 0.00043511390686035156
ell 736, elapsed: 0.00030803680419921875
ell 735, elapsed: 0.00046896934509277344
ell 734, elapsed: 0.0003170967102050781
ell 733, elapsed: 0.0005109310150146484
ell 732, elapsed: 0.0003669261932373047
ell 731, elapsed: 0.0004508495330810547
ell 730, elapsed: 0.0003402233123779297
ell 729, elapsed: 0.00042700767517089844
ell 728, elapsed: 0.00030303001403808594
ell 727, elapsed: 0.00046181678771972656
ell 726, elapsed: 0.0003020763397216797
ell 725, elapsed: 0.00043511390686035156
ell 724, elapsed: 0.0003139972686767578
ell 723, elapsed: 0.00045490264892578125
ell 722, elapsed: 0.0003399848937988281
ell 721, elapsed: 0.000514984130859375
ell 720, elapsed: 0.0003452301025390625
ell 719, elapsed: 0.0004858970642089844
ell 718, elapsed: 0.00035691261291503906
ell 717, elapsed: 0.0005199909210205078
ell 716, elapsed: 0.0003418922424316406
ell 715, elapsed: 0.0005619525909423828
ell 714, elapsed: 0.00032401084899902344
ell 713, elapsed: 0.00043892860412597656
ell 712, elapsed: 0.00030994415283203125
ell 711, elapsed: 0.00045299530029296875
ell 710, elapsed: 0.0003058910369873047
ell 709, elapsed: 0.0005090236663818359
ell 708, elapsed: 0.00030303001403808594
ell 707, elapsed: 0.00045418739318847656
ell 706, elapsed: 0.0003101825714111328
ell 705, elapsed: 0.0004410743713378906
ell 704, elapsed: 0.0003139972686767578
ell 703, elapsed: 0.00045013427734375
ell 702, elapsed: 0.0003440380096435547
ell 701, elapsed: 0.0004839897155761719
ell 700, elapsed: 0.0003349781036376953
ell 699, elapsed: 0.00044083595275878906
ell 698, elapsed: 0.00033593177795410156
ell 697, elapsed: 0.0004570484161376953
ell 696, elapsed: 0.0003180503845214844
ell 695, elapsed: 0.0004799365997314453
ell 694, elapsed: 0.0003590583801269531
ell 693, elapsed: 0.000537872314453125
ell 692, elapsed: 0.0003101825714111328
ell 691, elapsed: 0.00043010711669921875
ell 690, elapsed: 0.0003070831298828125
ell 689, elapsed: 0.0004730224609375
ell 688, elapsed: 0.0003268718719482422
ell 687, elapsed: 0.0004448890686035156
ell 686, elapsed: 0.00031185150146484375
ell 685, elapsed: 0.0004668235778808594
ell 684, elapsed: 0.00034809112548828125
ell 683, elapsed: 0.0005700588226318359
ell 682, elapsed: 0.0003669261932373047
ell 681, elapsed: 0.0004949569702148438
ell 680, elapsed: 0.00033283233642578125
ell 679, elapsed: 0.00051116943359375
ell 678, elapsed: 0.0003669261932373047
ell 677, elapsed: 0.0005459785461425781
ell 676, elapsed: 0.0003330707550048828
ell 675, elapsed: 0.0004849433898925781
ell 674, elapsed: 0.0003371238708496094
ell 673, elapsed: 0.0004909038543701172
ell 672, elapsed: 0.0003609657287597656
ell 671, elapsed: 0.0005309581756591797
ell 670, elapsed: 0.0003230571746826172
ell 669, elapsed: 0.0005438327789306641
ell 668, elapsed: 0.0003380775451660156
ell 667, elapsed: 0.0004680156707763672
ell 666, elapsed: 0.0003268718719482422
ell 665, elapsed: 0.00046896934509277344
ell 664, elapsed: 0.0003440380096435547
ell 663, elapsed: 0.0004839897155761719
ell 662, elapsed: 0.00033783912658691406
ell 661, elapsed: 0.0005078315734863281
ell 660, elapsed: 0.0004029273986816406
ell 659, elapsed: 0.0005018711090087891
ell 658, elapsed: 0.00031495094299316406
ell 657, elapsed: 0.0004589557647705078
ell 656, elapsed: 0.00030303001403808594
ell 655, elapsed: 0.00049591064453125
ell 654, elapsed: 0.00034499168395996094
ell 653, elapsed: 0.0004918575286865234
ell 652, elapsed: 0.0003428459167480469
ell 651, elapsed: 0.0006718635559082031
ell 650, elapsed: 0.0003249645233154297
ell 649, elapsed: 0.0005211830139160156
ell 648, elapsed: 0.0003209114074707031
ell 647, elapsed: 0.0004551410675048828
ell 646, elapsed: 0.0003390312194824219
ell 645, elapsed: 0.00043392181396484375
ell 644, elapsed: 0.00033593177795410156
ell 643, elapsed: 0.0005049705505371094
ell 642, elapsed: 0.00031304359436035156
ell 641, elapsed: 0.0004630088806152344
ell 640, elapsed: 0.0003371238708496094
ell 639, elapsed: 0.00043511390686035156
ell 638, elapsed: 0.00034499168395996094
ell 637, elapsed: 0.00045299530029296875
ell 636, elapsed: 0.0003159046173095703
ell 635, elapsed: 0.0004611015319824219
ell 634, elapsed: 0.0004029273986816406
ell 633, elapsed: 0.0004520416259765625
ell 632, elapsed: 0.0003600120544433594
ell 631, elapsed: 0.0004591941833496094
ell 630, elapsed: 0.0003120899200439453
ell 629, elapsed: 0.0004930496215820312
ell 628, elapsed: 0.0003139972686767578
ell 627, elapsed: 0.0004398822784423828
ell 626, elapsed: 0.0003559589385986328
ell 625, elapsed: 0.00048613548278808594
ell 624, elapsed: 0.0003180503845214844
ell 623, elapsed: 0.00044798851013183594
ell 622, elapsed: 0.00030994415283203125
ell 621, elapsed: 0.0005168914794921875
ell 620, elapsed: 0.00037097930908203125
ell 619, elapsed: 0.0005500316619873047
ell 618, elapsed: 0.00034499168395996094
ell 617, elapsed: 0.0006239414215087891
ell 616, elapsed: 0.00032806396484375
ell 615, elapsed: 0.0005321502685546875
ell 614, elapsed: 0.00034809112548828125
ell 613, elapsed: 0.0005431175231933594
ell 612, elapsed: 0.0004169940948486328
ell 611, elapsed: 0.0005011558532714844
ell 610, elapsed: 0.0004279613494873047
ell 609, elapsed: 0.0005650520324707031
ell 608, elapsed: 0.00033402442932128906
ell 607, elapsed: 0.0005400180816650391
ell 606, elapsed: 0.0004029273986816406
ell 605, elapsed: 0.0005359649658203125
ell 604, elapsed: 0.0004260540008544922
ell 603, elapsed: 0.0004677772521972656
ell 602, elapsed: 0.00040912628173828125
ell 601, elapsed: 0.00047588348388671875
ell 600, elapsed: 0.0003769397735595703
ell 599, elapsed: 0.0004448890686035156
ell 598, elapsed: 0.0004241466522216797
ell 597, elapsed: 0.0006611347198486328
ell 596, elapsed: 0.0004570484161376953
ell 595, elapsed: 0.0005810260772705078
ell 594, elapsed: 0.000370025634765625
ell 593, elapsed: 0.0005540847778320312
ell 592, elapsed: 0.00040602684020996094
ell 591, elapsed: 0.0005459785461425781
ell 590, elapsed: 0.000408172607421875
ell 589, elapsed: 0.0004639625549316406
ell 588, elapsed: 0.00034308433532714844
ell 587, elapsed: 0.0006430149078369141
ell 586, elapsed: 0.0003819465637207031
ell 585, elapsed: 0.0005218982696533203
ell 584, elapsed: 0.0004119873046875
ell 583, elapsed: 0.0005619525909423828
ell 582, elapsed: 0.000370025634765625
ell 581, elapsed: 0.00055694580078125
ell 580, elapsed: 0.00040221214294433594
ell 579, elapsed: 0.0006361007690429688
ell 578, elapsed: 0.00044608116149902344
ell 577, elapsed: 0.0007538795471191406
ell 576, elapsed: 0.0004680156707763672
ell 575, elapsed: 0.0006139278411865234
ell 574, elapsed: 0.0005319118499755859
ell 573, elapsed: 0.0007500648498535156
ell 572, elapsed: 0.000598907470703125
ell 571, elapsed: 0.0006031990051269531
ell 570, elapsed: 0.0003781318664550781
ell 569, elapsed: 0.0005519390106201172
ell 568, elapsed: 0.00037789344787597656
ell 567, elapsed: 0.0004608631134033203
ell 566, elapsed: 0.0003631114959716797
ell 565, elapsed: 0.0006020069122314453
ell 564, elapsed: 0.0004138946533203125
ell 563, elapsed: 0.0005860328674316406
ell 562, elapsed: 0.0005068778991699219
ell 561, elapsed: 0.0006661415100097656
ell 560, elapsed: 0.00032901763916015625
ell 559, elapsed: 0.0005769729614257812
ell 558, elapsed: 0.0004220008850097656
ell 557, elapsed: 0.0005240440368652344
ell 556, elapsed: 0.00041103363037109375
ell 555, elapsed: 0.0004839897155761719
ell 554, elapsed: 0.0003399848937988281
ell 553, elapsed: 0.0005328655242919922
ell 552, elapsed: 0.0004298686981201172
ell 551, elapsed: 0.0005218982696533203
ell 550, elapsed: 0.0003838539123535156
ell 549, elapsed: 0.0004429817199707031
ell 548, elapsed: 0.00039196014404296875
ell 547, elapsed: 0.00048613548278808594
ell 546, elapsed: 0.00037288665771484375
ell 545, elapsed: 0.000579833984375
ell 544, elapsed: 0.00043511390686035156
ell 543, elapsed: 0.000453948974609375
ell 542, elapsed: 0.00031495094299316406
ell 541, elapsed: 0.0004451274871826172
ell 540, elapsed: 0.00032782554626464844
ell 539, elapsed: 0.00047087669372558594
ell 538, elapsed: 0.0003299713134765625
ell 537, elapsed: 0.00045800209045410156
ell 536, elapsed: 0.00032806396484375
ell 535, elapsed: 0.0005140304565429688
ell 534, elapsed: 0.0003209114074707031
ell 533, elapsed: 0.00046706199645996094
ell 532, elapsed: 0.0003230571746826172
ell 531, elapsed: 0.0004680156707763672
ell 530, elapsed: 0.0003249645233154297
ell 529, elapsed: 0.0004398822784423828
ell 528, elapsed: 0.0003180503845214844
ell 527, elapsed: 0.0004730224609375
ell 526, elapsed: 0.0004918575286865234
ell 525, elapsed: 0.00045609474182128906
ell 524, elapsed: 0.00043010711669921875
ell 523, elapsed: 0.0005118846893310547
ell 522, elapsed: 0.00035500526428222656
ell 521, elapsed: 0.00048089027404785156
ell 520, elapsed: 0.0003209114074707031
ell 519, elapsed: 0.0004830360412597656
ell 518, elapsed: 0.0003688335418701172
ell 517, elapsed: 0.0005660057067871094
ell 516, elapsed: 0.0003371238708496094
ell 515, elapsed: 0.0004980564117431641
ell 514, elapsed: 0.0003600120544433594
ell 513, elapsed: 0.00047397613525390625
ell 512, elapsed: 0.0003139972686767578
ell 511, elapsed: 0.0004220008850097656
ell 510, elapsed: 0.0003170967102050781
ell 509, elapsed: 0.0004990100860595703
ell 508, elapsed: 0.00032591819763183594
ell 507, elapsed: 0.0005180835723876953
ell 506, elapsed: 0.00035190582275390625
ell 505, elapsed: 0.0005571842193603516
ell 504, elapsed: 0.0003218650817871094
ell 503, elapsed: 0.0004639625549316406
ell 502, elapsed: 0.00031304359436035156
ell 501, elapsed: 0.0005269050598144531
ell 500, elapsed: 0.00035190582275390625
ell 499, elapsed: 0.0005049705505371094
ell 498, elapsed: 0.0003218650817871094
ell 497, elapsed: 0.0004968643188476562
ell 496, elapsed: 0.0003490447998046875
ell 495, elapsed: 0.0004999637603759766
ell 494, elapsed: 0.0003600120544433594
ell 493, elapsed: 0.0006029605865478516
ell 492, elapsed: 0.0003631114959716797
ell 491, elapsed: 0.0005071163177490234
ell 490, elapsed: 0.00041103363037109375
ell 489, elapsed: 0.0005359649658203125
ell 488, elapsed: 0.0003590583801269531
ell 487, elapsed: 0.0005130767822265625
ell 486, elapsed: 0.0004260540008544922
ell 485, elapsed: 0.0005800724029541016
ell 484, elapsed: 0.00039696693420410156
ell 483, elapsed: 0.0005478858947753906
ell 482, elapsed: 0.00037384033203125
ell 481, elapsed: 0.0005819797515869141
ell 480, elapsed: 0.0003819465637207031
ell 479, elapsed: 0.0005128383636474609
ell 478, elapsed: 0.0003619194030761719
ell 477, elapsed: 0.0005748271942138672
ell 476, elapsed: 0.0003619194030761719
ell 475, elapsed: 0.0005409717559814453
ell 474, elapsed: 0.0003788471221923828
ell 473, elapsed: 0.0005929470062255859
ell 472, elapsed: 0.0003800392150878906
ell 471, elapsed: 0.0005137920379638672
ell 470, elapsed: 0.0003771781921386719
ell 469, elapsed: 0.0005288124084472656
ell 468, elapsed: 0.0003609657287597656
ell 467, elapsed: 0.0004980564117431641
ell 466, elapsed: 0.00035309791564941406
ell 465, elapsed: 0.0005168914794921875
ell 464, elapsed: 0.0003561973571777344
ell 463, elapsed: 0.0004968643188476562
ell 462, elapsed: 0.0005030632019042969
ell 461, elapsed: 0.000637054443359375
ell 460, elapsed: 0.0003712177276611328
ell 459, elapsed: 0.0006470680236816406
ell 458, elapsed: 0.0004570484161376953
ell 457, elapsed: 0.0005450248718261719
ell 456, elapsed: 0.00037097930908203125
ell 455, elapsed: 0.0005080699920654297
ell 454, elapsed: 0.00039196014404296875
ell 453, elapsed: 0.0006260871887207031
ell 452, elapsed: 0.00037598609924316406
ell 451, elapsed: 0.0005500316619873047
ell 450, elapsed: 0.0003612041473388672
ell 449, elapsed: 0.0006070137023925781
ell 448, elapsed: 0.0003578662872314453
ell 447, elapsed: 0.000598907470703125
ell 446, elapsed: 0.00037384033203125
ell 445, elapsed: 0.0005750656127929688
ell 444, elapsed: 0.00034499168395996094
ell 443, elapsed: 0.0004680156707763672
ell 442, elapsed: 0.0003418922424316406
ell 441, elapsed: 0.0004508495330810547
ell 440, elapsed: 0.00033402442932128906
ell 439, elapsed: 0.0004870891571044922
ell 438, elapsed: 0.00045418739318847656
ell 437, elapsed: 0.0005879402160644531
ell 436, elapsed: 0.00034809112548828125
ell 435, elapsed: 0.000537872314453125
ell 434, elapsed: 0.0004100799560546875
ell 433, elapsed: 0.000637054443359375
ell 432, elapsed: 0.00031304359436035156
ell 431, elapsed: 0.00046181678771972656
ell 430, elapsed: 0.0003170967102050781
ell 429, elapsed: 0.00043201446533203125
ell 428, elapsed: 0.00032210350036621094
ell 427, elapsed: 0.0005209445953369141
ell 426, elapsed: 0.00033593177795410156
ell 425, elapsed: 0.0004949569702148438
ell 424, elapsed: 0.0003008842468261719
ell 423, elapsed: 0.0004999637603759766
ell 422, elapsed: 0.0003590583801269531
ell 421, elapsed: 0.0004830360412597656
ell 420, elapsed: 0.0003101825714111328
ell 419, elapsed: 0.0005030632019042969
ell 418, elapsed: 0.0003349781036376953
ell 417, elapsed: 0.0006070137023925781
ell 416, elapsed: 0.0003261566162109375
ell 415, elapsed: 0.0004792213439941406
ell 414, elapsed: 0.00037789344787597656
ell 413, elapsed: 0.0005710124969482422
ell 412, elapsed: 0.0004010200500488281
ell 411, elapsed: 0.0005159378051757812
ell 410, elapsed: 0.0003578662872314453
ell 409, elapsed: 0.0005240440368652344
ell 408, elapsed: 0.00034499168395996094
ell 407, elapsed: 0.0005061626434326172
ell 406, elapsed: 0.00035190582275390625
ell 405, elapsed: 0.0005118846893310547
ell 404, elapsed: 0.00042891502380371094
ell 403, elapsed: 0.0006079673767089844
ell 402, elapsed: 0.0003769397735595703
ell 401, elapsed: 0.0005130767822265625
ell 400, elapsed: 0.0003769397735595703
ell 399, elapsed: 0.0005080699920654297
ell 398, elapsed: 0.00035309791564941406
ell 397, elapsed: 0.0005080699920654297
ell 396, elapsed: 0.0003669261932373047
ell 395, elapsed: 0.000579833984375
ell 394, elapsed: 0.00036597251892089844
ell 393, elapsed: 0.0005619525909423828
ell 392, elapsed: 0.00036597251892089844
ell 391, elapsed: 0.0004870891571044922
ell 390, elapsed: 0.00037288665771484375
ell 389, elapsed: 0.0005478858947753906
ell 388, elapsed: 0.0003581047058105469
ell 387, elapsed: 0.0005259513854980469
ell 386, elapsed: 0.0003790855407714844
ell 385, elapsed: 0.0004620552062988281
ell 384, elapsed: 0.0003750324249267578
ell 383, elapsed: 0.0004820823669433594
ell 382, elapsed: 0.0003509521484375
ell 381, elapsed: 0.00047016143798828125
ell 380, elapsed: 0.00034689903259277344
ell 379, elapsed: 0.0005040168762207031
ell 378, elapsed: 0.0002779960632324219
ell 377, elapsed: 0.0003790855407714844
ell 376, elapsed: 0.0002810955047607422
ell 375, elapsed: 0.0003409385681152344
ell 374, elapsed: 0.00027108192443847656
ell 373, elapsed: 0.0005331039428710938
ell 372, elapsed: 0.0002830028533935547
ell 371, elapsed: 0.00037407875061035156
ell 370, elapsed: 0.00024700164794921875
ell 369, elapsed: 0.00034308433532714844
ell 368, elapsed: 0.00024390220642089844
ell 367, elapsed: 0.00033402442932128906
ell 366, elapsed: 0.00024700164794921875
ell 365, elapsed: 0.0003459453582763672
ell 364, elapsed: 0.0002739429473876953
ell 363, elapsed: 0.0003681182861328125
ell 362, elapsed: 0.0002751350402832031
ell 361, elapsed: 0.0004749298095703125
ell 360, elapsed: 0.000244140625
ell 359, elapsed: 0.0003528594970703125
ell 358, elapsed: 0.0002620220184326172
ell 357, elapsed: 0.0003418922424316406
ell 356, elapsed: 0.0002911090850830078
ell 355, elapsed: 0.00037598609924316406
ell 354, elapsed: 0.0002541542053222656
ell 353, elapsed: 0.00032901763916015625
ell 352, elapsed: 0.0002810955047607422
ell 351, elapsed: 0.00036597251892089844
ell 350, elapsed: 0.0003390312194824219
ell 349, elapsed: 0.0003361701965332031
ell 348, elapsed: 0.000244140625
ell 347, elapsed: 0.00032401084899902344
ell 346, elapsed: 0.00024390220642089844
ell 345, elapsed: 0.00033092498779296875
ell 344, elapsed: 0.00024390220642089844
ell 343, elapsed: 0.0003249645233154297
ell 342, elapsed: 0.00024199485778808594
ell 341, elapsed: 0.0003612041473388672
ell 340, elapsed: 0.00027489662170410156
ell 339, elapsed: 0.00037598609924316406
ell 338, elapsed: 0.000392913818359375
ell 337, elapsed: 0.00034689903259277344
ell 336, elapsed: 0.0002491474151611328
ell 335, elapsed: 0.0003399848937988281
ell 334, elapsed: 0.00024509429931640625
ell 333, elapsed: 0.0003268718719482422
ell 332, elapsed: 0.00025582313537597656
ell 331, elapsed: 0.00032711029052734375
ell 330, elapsed: 0.0002448558807373047
ell 329, elapsed: 0.00040912628173828125
ell 328, elapsed: 0.00027108192443847656
ell 327, elapsed: 0.00046896934509277344
ell 326, elapsed: 0.00025200843811035156
ell 325, elapsed: 0.0003490447998046875
ell 324, elapsed: 0.00027298927307128906
ell 323, elapsed: 0.0003650188446044922
ell 322, elapsed: 0.0002789497375488281
ell 321, elapsed: 0.00037598609924316406
ell 320, elapsed: 0.0002651214599609375
ell 319, elapsed: 0.0003609657287597656
ell 318, elapsed: 0.0002779960632324219
ell 317, elapsed: 0.0004019737243652344
ell 316, elapsed: 0.00045609474182128906
ell 315, elapsed: 0.0003921985626220703
ell 314, elapsed: 0.00028204917907714844
ell 313, elapsed: 0.0004248619079589844
ell 312, elapsed: 0.0003139972686767578
ell 311, elapsed: 0.00040912628173828125
ell 310, elapsed: 0.0002689361572265625
ell 309, elapsed: 0.0004000663757324219
ell 308, elapsed: 0.0002949237823486328
ell 307, elapsed: 0.0005331039428710938
ell 306, elapsed: 0.0002830028533935547
ell 305, elapsed: 0.00037789344787597656
ell 304, elapsed: 0.00026297569274902344
ell 303, elapsed: 0.0003399848937988281
ell 302, elapsed: 0.0002808570861816406
ell 301, elapsed: 0.00037288665771484375
ell 300, elapsed: 0.0002770423889160156
ell 299, elapsed: 0.0003540515899658203
ell 298, elapsed: 0.000286102294921875
ell 297, elapsed: 0.0003921985626220703
ell 296, elapsed: 0.00038313865661621094
ell 295, elapsed: 0.000392913818359375
ell 294, elapsed: 0.00025200843811035156
ell 293, elapsed: 0.0003380775451660156
ell 292, elapsed: 0.00025200843811035156
ell 291, elapsed: 0.0003821849822998047
ell 290, elapsed: 0.0002608299255371094
ell 289, elapsed: 0.00036787986755371094
ell 288, elapsed: 0.00026607513427734375
ell 287, elapsed: 0.0003669261932373047
ell 286, elapsed: 0.0002911090850830078
ell 285, elapsed: 0.0005078315734863281
ell 284, elapsed: 0.00028014183044433594
ell 283, elapsed: 0.00037598609924316406
ell 282, elapsed: 0.0002789497375488281
ell 281, elapsed: 0.00041294097900390625
ell 280, elapsed: 0.0003039836883544922
ell 279, elapsed: 0.00043010711669921875
ell 278, elapsed: 0.0002830028533935547
ell 277, elapsed: 0.00035309791564941406
ell 276, elapsed: 0.0002849102020263672
ell 275, elapsed: 0.0005240440368652344
ell 274, elapsed: 0.00028777122497558594
ell 273, elapsed: 0.00043892860412597656
ell 272, elapsed: 0.0003058910369873047
ell 271, elapsed: 0.0004069805145263672
ell 270, elapsed: 0.0002980232238769531
ell 269, elapsed: 0.00043201446533203125
ell 268, elapsed: 0.0002970695495605469
ell 267, elapsed: 0.0004031658172607422
ell 266, elapsed: 0.0002970695495605469
ell 265, elapsed: 0.0005240440368652344
ell 264, elapsed: 0.0002989768981933594
ell 263, elapsed: 0.0003991127014160156
ell 262, elapsed: 0.0002968311309814453
ell 261, elapsed: 0.0003960132598876953
ell 260, elapsed: 0.0002968311309814453
ell 259, elapsed: 0.00040912628173828125
ell 258, elapsed: 0.0002989768981933594
ell 257, elapsed: 0.00040984153747558594
ell 256, elapsed: 0.0003070831298828125
ell 255, elapsed: 0.0004980564117431641
ell 254, elapsed: 0.0003058910369873047
ell 253, elapsed: 0.0004260540008544922
ell 252, elapsed: 0.00030994415283203125
ell 251, elapsed: 0.00041794776916503906
ell 250, elapsed: 0.0002980232238769531
ell 249, elapsed: 0.0004210472106933594
ell 248, elapsed: 0.0002961158752441406
ell 247, elapsed: 0.0004069805145263672
ell 246, elapsed: 0.0002970695495605469
ell 245, elapsed: 0.0004608631134033203
ell 244, elapsed: 0.00030803680419921875
ell 243, elapsed: 0.0004570484161376953
ell 242, elapsed: 0.0003101825714111328
ell 241, elapsed: 0.0004298686981201172
ell 240, elapsed: 0.0003070831298828125
ell 239, elapsed: 0.000431060791015625
ell 238, elapsed: 0.0002989768981933594
ell 237, elapsed: 0.0004181861877441406
ell 236, elapsed: 0.00035381317138671875
ell 235, elapsed: 0.00043511390686035156
ell 234, elapsed: 0.00030517578125
ell 233, elapsed: 0.00041294097900390625
ell 232, elapsed: 0.0002980232238769531
ell 231, elapsed: 0.00042319297790527344
ell 230, elapsed: 0.0003077983856201172
ell 229, elapsed: 0.000431060791015625
ell 228, elapsed: 0.0002999305725097656
ell 227, elapsed: 0.000453948974609375
ell 226, elapsed: 0.00030303001403808594
ell 225, elapsed: 0.00044608116149902344
ell 224, elapsed: 0.0002999305725097656
ell 223, elapsed: 0.00041604042053222656
ell 222, elapsed: 0.000308990478515625
ell 221, elapsed: 0.0004229545593261719
ell 220, elapsed: 0.00030112266540527344
ell 219, elapsed: 0.0004150867462158203
ell 218, elapsed: 0.0002949237823486328
ell 217, elapsed: 0.000453948974609375
ell 216, elapsed: 0.0002961158752441406
ell 215, elapsed: 0.0004131793975830078
ell 214, elapsed: 0.0002961158752441406
ell 213, elapsed: 0.0004029273986816406
ell 212, elapsed: 0.0002970695495605469
ell 211, elapsed: 0.0003960132598876953
ell 210, elapsed: 0.0002942085266113281
ell 209, elapsed: 0.0004038810729980469
ell 208, elapsed: 0.0002970695495605469
ell 207, elapsed: 0.0004799365997314453
ell 206, elapsed: 0.0003039836883544922
ell 205, elapsed: 0.00043487548828125
ell 204, elapsed: 0.0002980232238769531
ell 203, elapsed: 0.0004949569702148438
ell 202, elapsed: 0.0003039836883544922
ell 201, elapsed: 0.00041103363037109375
ell 200, elapsed: 0.0003669261932373047
ell 199, elapsed: 0.0004870891571044922
ell 198, elapsed: 0.0003581047058105469
ell 197, elapsed: 0.00042510032653808594
ell 196, elapsed: 0.00030803680419921875
ell 195, elapsed: 0.0004329681396484375
ell 194, elapsed: 0.0003058910369873047
ell 193, elapsed: 0.00042510032653808594
ell 192, elapsed: 0.00032401084899902344
ell 191, elapsed: 0.0004611015319824219
ell 190, elapsed: 0.00039696693420410156
ell 189, elapsed: 0.0005869865417480469
ell 188, elapsed: 0.0003349781036376953
ell 187, elapsed: 0.0004909038543701172
ell 186, elapsed: 0.0003409385681152344
ell 185, elapsed: 0.0004971027374267578
ell 184, elapsed: 0.00036406517028808594
ell 183, elapsed: 0.0005080699920654297
ell 182, elapsed: 0.0003380775451660156
ell 181, elapsed: 0.0004928112030029297
ell 180, elapsed: 0.0006759166717529297
ell 179, elapsed: 0.0004899501800537109
ell 178, elapsed: 0.000392913818359375
ell 177, elapsed: 0.0004630088806152344
ell 176, elapsed: 0.0003490447998046875
ell 175, elapsed: 0.0004489421844482422
ell 174, elapsed: 0.0002980232238769531
ell 173, elapsed: 0.0004200935363769531
ell 172, elapsed: 0.00038886070251464844
ell 171, elapsed: 0.0004858970642089844
ell 170, elapsed: 0.0003209114074707031
ell 169, elapsed: 0.00045490264892578125
ell 168, elapsed: 0.0003039836883544922
ell 167, elapsed: 0.00042700767517089844
ell 166, elapsed: 0.0003268718719482422
ell 165, elapsed: 0.00045299530029296875
ell 164, elapsed: 0.0003211498260498047
ell 163, elapsed: 0.00048804283142089844
ell 162, elapsed: 0.0003178119659423828
ell 161, elapsed: 0.0004930496215820312
ell 160, elapsed: 0.00030684471130371094
ell 159, elapsed: 0.0004150867462158203
ell 158, elapsed: 0.0002970695495605469
ell 157, elapsed: 0.000408172607421875
ell 156, elapsed: 0.00028896331787109375
ell 155, elapsed: 0.0004239082336425781
ell 154, elapsed: 0.00032901763916015625
ell 153, elapsed: 0.0017709732055664062
ell 152, elapsed: 0.0003039836883544922
ell 151, elapsed: 0.0004279613494873047
ell 150, elapsed: 0.00029778480529785156
ell 149, elapsed: 0.0004029273986816406
ell 148, elapsed: 0.0002951622009277344
ell 147, elapsed: 0.0004551410675048828
ell 146, elapsed: 0.00030493736267089844
ell 145, elapsed: 0.00040793418884277344
ell 144, elapsed: 0.0002999305725097656
ell 143, elapsed: 0.0004119873046875
ell 142, elapsed: 0.00029397010803222656
ell 141, elapsed: 0.00047087669372558594
ell 140, elapsed: 0.00030303001403808594
ell 139, elapsed: 0.00040602684020996094
ell 138, elapsed: 0.00029015541076660156
ell 137, elapsed: 0.0004589557647705078
ell 136, elapsed: 0.00029921531677246094
ell 135, elapsed: 0.0004601478576660156
ell 134, elapsed: 0.0002989768981933594
ell 133, elapsed: 0.0004031658172607422
ell 132, elapsed: 0.00030303001403808594
ell 131, elapsed: 0.0004630088806152344
ell 130, elapsed: 0.0002968311309814453
ell 129, elapsed: 0.0004100799560546875
ell 128, elapsed: 0.0003688335418701172
ell 127, elapsed: 0.0004298686981201172
ell 126, elapsed: 0.0002989768981933594
ell 125, elapsed: 0.0004260540008544922
ell 124, elapsed: 0.0003151893615722656
ell 123, elapsed: 0.0003998279571533203
ell 122, elapsed: 0.0002949237823486328
ell 121, elapsed: 0.0004439353942871094
ell 120, elapsed: 0.0002949237823486328
ell 119, elapsed: 0.0004019737243652344
ell 118, elapsed: 0.0008208751678466797
ell 117, elapsed: 0.0004451274871826172
ell 116, elapsed: 0.0003120899200439453
ell 115, elapsed: 0.0004382133483886719
ell 114, elapsed: 0.0002999305725097656
ell 113, elapsed: 0.00043201446533203125
ell 112, elapsed: 0.0002942085266113281
ell 111, elapsed: 0.00040602684020996094
ell 110, elapsed: 0.00028896331787109375
ell 109, elapsed: 0.000888824462890625
ell 108, elapsed: 0.0003230571746826172
ell 107, elapsed: 0.00041604042053222656
ell 106, elapsed: 0.0002980232238769531
ell 105, elapsed: 0.0004069805145263672
ell 104, elapsed: 0.0002930164337158203
ell 103, elapsed: 0.000453948974609375
ell 102, elapsed: 0.0003058910369873047
ell 101, elapsed: 0.0009338855743408203
ell 100, elapsed: 0.00030517578125
ell 99, elapsed: 0.0004138946533203125
ell 98, elapsed: 0.0003058910369873047
ell 97, elapsed: 0.00041413307189941406
ell 96, elapsed: 0.0003039836883544922
ell 95, elapsed: 0.0004630088806152344
ell 94, elapsed: 0.0003039836883544922
ell 93, elapsed: 0.0004069805145263672
ell 92, elapsed: 0.0008199214935302734
ell 91, elapsed: 0.0004608631134033203
ell 90, elapsed: 0.00030303001403808594
ell 89, elapsed: 0.00041103363037109375
ell 88, elapsed: 0.00029921531677246094
ell 87, elapsed: 0.00042510032653808594
ell 86, elapsed: 0.0003039836883544922
ell 85, elapsed: 0.00041794776916503906
ell 84, elapsed: 0.0008120536804199219
ell 83, elapsed: 0.0004260540008544922
ell 82, elapsed: 0.0003020763397216797
ell 81, elapsed: 0.00047898292541503906
ell 80, elapsed: 0.00030303001403808594
ell 79, elapsed: 0.0004019737243652344
ell 78, elapsed: 0.0002980232238769531
ell 77, elapsed: 0.00040411949157714844
ell 76, elapsed: 0.0002961158752441406
ell 75, elapsed: 0.0009331703186035156
ell 74, elapsed: 0.00030517578125
ell 73, elapsed: 0.00043010711669921875
ell 72, elapsed: 0.00030303001403808594
ell 71, elapsed: 0.0004138946533203125
ell 70, elapsed: 0.000308990478515625
ell 69, elapsed: 0.0004189014434814453
ell 68, elapsed: 0.0003058910369873047
ell 67, elapsed: 0.0009000301361083984
ell 66, elapsed: 0.0003039836883544922
ell 65, elapsed: 0.00044798851013183594
ell 64, elapsed: 0.00031185150146484375
ell 63, elapsed: 0.0004918575286865234
ell 62, elapsed: 0.00030684471130371094
ell 61, elapsed: 0.00043487548828125
ell 60, elapsed: 0.00033402442932128906
ell 59, elapsed: 0.00042510032653808594
ell 58, elapsed: 0.00032806396484375
ell 57, elapsed: 0.00045299530029296875
ell 56, elapsed: 0.00033402442932128906
ell 55, elapsed: 0.0004210472106933594
ell 54, elapsed: 0.00032591819763183594
ell 53, elapsed: 0.00039696693420410156
ell 52, elapsed: 0.0003190040588378906
ell 51, elapsed: 0.00040912628173828125
ell 50, elapsed: 0.0003199577331542969
ell 49, elapsed: 0.0004470348358154297
ell 48, elapsed: 0.00032401084899902344
ell 47, elapsed: 0.0004048347473144531
ell 46, elapsed: 0.0003161430358886719
ell 45, elapsed: 0.00042700767517089844
ell 44, elapsed: 0.00032401084899902344
ell 43, elapsed: 0.0004010200500488281
ell 42, elapsed: 0.00031304359436035156
ell 41, elapsed: 0.0004379749298095703
ell 40, elapsed: 0.0003371238708496094
ell 39, elapsed: 0.0004820823669433594
ell 38, elapsed: 0.00032401084899902344
ell 37, elapsed: 0.0004520416259765625
ell 36, elapsed: 0.00032901763916015625
ell 35, elapsed: 0.00048613548278808594
ell 34, elapsed: 0.0003211498260498047
ell 33, elapsed: 0.00047016143798828125
ell 32, elapsed: 0.00033402442932128906
ell 31, elapsed: 0.0005600452423095703
ell 30, elapsed: 0.0003190040588378906
ell 29, elapsed: 0.00043392181396484375
ell 28, elapsed: 0.0003159046173095703
ell 27, elapsed: 0.0004558563232421875
ell 26, elapsed: 0.0003020763397216797
ell 25, elapsed: 0.0004680156707763672
ell 24, elapsed: 0.0003108978271484375
ell 23, elapsed: 0.00043892860412597656
ell 22, elapsed: 0.0003459453582763672
ell 21, elapsed: 0.0005109310150146484
ell 20, elapsed: 0.000308990478515625
ell 19, elapsed: 0.00043702125549316406
ell 18, elapsed: 0.0003039836883544922
ell 17, elapsed: 0.00043010711669921875
ell 16, elapsed: 0.0003020763397216797
ell 15, elapsed: 0.00044608116149902344
ell 14, elapsed: 0.000308990478515625
ell 13, elapsed: 0.0005068778991699219
ell 12, elapsed: 0.0003211498260498047
ell 11, elapsed: 0.0004630088806152344
ell 10, elapsed: 0.0003070831298828125
ell 9, elapsed: 0.0004940032958984375
ell 8, elapsed: 0.00031113624572753906
ell 7, elapsed: 0.0004429817199707031
ell 6, elapsed: 0.00030303001403808594
ell 5, elapsed: 0.0004639625549316406
ell 4, elapsed: 0.000308990478515625
ell 3, elapsed: 0.0005168914794921875
ell 2, elapsed: 0.00030517578125
ell 1, elapsed: 0.0004601478576660156
ell 0, elapsed: 0.0002970695495605469
  0.672592 seconds (41.19 k allocations: 2.939 MiB)
elapsed: 0.0005929470062255859
step:          0.05352 sec (0 allocations: 0 byte, 0.0% gc time)
swapping:      0.000826 sec (0 allocations: 0 byte, 0.0% gc time)
calc_Mellell!: 0.009869 sec (0 allocations: 0 byte, 0.0% gc time)
  t0 :  0.00346 sec (0 allocations: 0 byte, 0.0% gc time)
  tm2 : 0.091876 sec (0 allocations: 0 byte, 0.0% gc time)
  tm2s: 0.00257 sec (0 allocations: 0 byte, 0.0% gc time)
  tm4 : 0.178864 sec (0 allocations: 0 byte, 0.0% gc time)
  tp2 : 0.0 sec (0 allocations: 0 byte, 0.0% gc time)
  tp2s: 0.0 sec (0 allocations: 0 byte, 0.0% gc time)
  tp4 : 0.0 sec (0 allocations: 0 byte, 0.0% gc time)
calc_wtdll!:   0.300809 sec (9.87 k allocations: 1.043 MB, 0.0% gc time)
calc_wljj!:    0.03357 sec (689 allocations: 10.766 KB, 0.0% gc time)
mult_prefac!:  0.0 sec (0 allocations: 0 byte, 0.0% gc time)
convert:       0.0 sec (0 allocations: 0 byte, 0.0% gc time)
write:         0.097147 sec (0 allocations: 0 byte, 0.0% gc time)
test_rand_2f1: 0.0 sec (0 allocations: 0 byte, 0.0% gc time)
Closing outfile out/Ml21-cache.bin...   0.018004 seconds
  0.000547 seconds (46 allocations: 28.109 KiB)
make_phi():   0.002108 seconds (8.19 k allocations: 237.828 KiB)
  0.160210 seconds (146.69 k allocations: 3.629 MiB)
tskip:       0.001049 sec (0 allocations: 0 byte, 0.0% gc time)
tread:       0.038526 sec (19 allocations: 10.688 KB, 0.0% gc time)
tmultphi:    0.009801 sec (0 allocations: 0 byte, 0.0% gc time)
tbrfft:      0.045259 sec (9.592 k allocations: 449.625 KB, 0.0% gc time)
tmultprefac: 0.018504 sec (0 allocations: 0 byte, 0.0% gc time)
toutfunc:    0.050072 sec (129.905 k allocations: 2.421 MB, 0.0% gc time)
Testing R=1.0 ... passed
Calculating fmax: 
  dlrec    = 4
  dlrecRg1 = -4
  q=1.1, R=0.9:	  0.289643 seconds (116.42 k allocations: 15.599 MiB, 7.88% gc time)

  0.290348 seconds (116.46 k allocations: 15.633 MiB, 7.86% gc time)
ℓ = 1202
Δℓ = 4
ΔℓRg1 = -4
N = 1600
q = 1.1
kmin = 1.0e-5
kmax = 100000.00000000004
χ0 = 0.023029999999999995
RR = RR.tsv
ℓmax = ℓmax.bin
f21 = f21.bin
kmin = 1.0e-5
kmax = 100000.0
dlrec    = 4
dlrecRg1 = -4
Output size: 5741568 bytes = 0.005347251892089844 GiB
Output size: 51264 bytes = 4.774332046508789e-5 GiB
Reading 'out/F21EllCache'...   0.001210 seconds (267 allocations: 84.656 KiB)
ellmax: 1202
lmaxcache: 1202
fell[:,1,1] = Complex{Float64}[1.3482014726274674e-57 - 3.302141236118086e-73im, 1.357860004724329e-57 - 3.3257978169518355e-73im]
ell 1202, elapsed: 8.58306884765625e-5
ell 1201, elapsed: 0.00035190582275390625
ell 1200, elapsed: 0.0003631114959716797
ell 1199, elapsed: 0.00034499168395996094
ell 1198, elapsed: 0.0003559589385986328
ell 1002, elapsed: 0.009065866470336914
ell 1001, elapsed: 0.00048613548278808594
ell 1000, elapsed: 0.0003330707550048828
ell 999, elapsed: 0.0003268718719482422
ell 998, elapsed: 0.00032901763916015625
ell 902, elapsed: 0.0048999786376953125
ell 901, elapsed: 0.00035190582275390625
ell 900, elapsed: 0.0003859996795654297
ell 899, elapsed: 0.0003600120544433594
ell 898, elapsed: 0.00034999847412109375
ell 802, elapsed: 0.004904985427856445
ell 801, elapsed: 0.0003521442413330078
ell 800, elapsed: 0.00035190582275390625
ell 799, elapsed: 0.0003409385681152344
ell 798, elapsed: 0.00036215782165527344
ell 702, elapsed: 0.004820108413696289
ell 701, elapsed: 0.00034809112548828125
ell 700, elapsed: 0.00034809112548828125
ell 699, elapsed: 0.0003638267517089844
ell 698, elapsed: 0.00033783912658691406
ell 602, elapsed: 0.005074977874755859
ell 601, elapsed: 0.00042891502380371094
ell 600, elapsed: 0.00031685829162597656
ell 599, elapsed: 0.0003159046173095703
ell 598, elapsed: 0.0003211498260498047
ell 502, elapsed: 0.004961967468261719
ell 501, elapsed: 0.0003631114959716797
ell 500, elapsed: 0.0003361701965332031
ell 499, elapsed: 0.00039696693420410156
ell 498, elapsed: 0.0003299713134765625
ell 402, elapsed: 0.004907131195068359
ell 401, elapsed: 0.00041604042053222656
ell 400, elapsed: 0.00032901763916015625
ell 399, elapsed: 0.00034809112548828125
ell 398, elapsed: 0.00031495094299316406
ell 302, elapsed: 0.004518032073974609
ell 301, elapsed: 0.0003719329833984375
ell 300, elapsed: 0.0004661083221435547
ell 299, elapsed: 0.00032591819763183594
ell 298, elapsed: 0.0003299713134765625
ell 202, elapsed: 0.006108999252319336
ell 201, elapsed: 0.0003409385681152344
ell 200, elapsed: 0.0004038810729980469
ell 199, elapsed: 0.00037789344787597656
ell 198, elapsed: 0.000392913818359375
ell 152, elapsed: 0.0030181407928466797
ell 151, elapsed: 0.0003910064697265625
ell 150, elapsed: 0.0003840923309326172
ell 149, elapsed: 0.00029587745666503906
ell 148, elapsed: 0.00033402442932128906
ell 127, elapsed: 0.0017158985137939453
ell 126, elapsed: 0.00036978721618652344
ell 125, elapsed: 0.00040411949157714844
ell 124, elapsed: 0.0003819465637207031
ell 123, elapsed: 0.00032711029052734375
ell 114, elapsed: 0.0007150173187255859
ell 113, elapsed: 0.0005488395690917969
ell 112, elapsed: 0.0003190040588378906
ell 111, elapsed: 0.0003268718719482422
ell 110, elapsed: 0.0003581047058105469
ell 102, elapsed: 0.0008978843688964844
ell 101, elapsed: 0.0003399848937988281
ell 100, elapsed: 0.0002970695495605469
ell 99, elapsed: 0.00031495094299316406
ell 98, elapsed: 0.00036907196044921875
ell 97, elapsed: 0.0004107952117919922
ell 96, elapsed: 0.0005280971527099609
ell 95, elapsed: 0.00037407875061035156
ell 94, elapsed: 0.0005419254302978516
ell 93, elapsed: 0.00041413307189941406
ell 92, elapsed: 0.0007050037384033203
ell 91, elapsed: 0.0004191398620605469
ell 90, elapsed: 0.0004899501800537109
ell 89, elapsed: 0.0004169940948486328
ell 88, elapsed: 0.0005488395690917969
ell 87, elapsed: 0.0005450248718261719
ell 86, elapsed: 0.0006148815155029297
ell 85, elapsed: 0.0004029273986816406
ell 84, elapsed: 0.0005321502685546875
ell 83, elapsed: 0.0004870891571044922
ell 82, elapsed: 0.0005288124084472656
ell 81, elapsed: 0.0004429817199707031
ell 80, elapsed: 0.00048089027404785156
ell 79, elapsed: 0.00039196014404296875
ell 78, elapsed: 0.0004830360412597656
ell 77, elapsed: 0.0004069805145263672
ell 76, elapsed: 0.0005068778991699219
ell 75, elapsed: 0.0003478527069091797
ell 74, elapsed: 0.00047278404235839844
ell 73, elapsed: 0.00039887428283691406
ell 72, elapsed: 0.00051116943359375
ell 71, elapsed: 0.00037598609924316406
ell 70, elapsed: 0.0005359649658203125
ell 69, elapsed: 0.00039887428283691406
ell 68, elapsed: 0.0006999969482421875
ell 67, elapsed: 0.00037288665771484375
ell 66, elapsed: 0.0006120204925537109
ell 65, elapsed: 0.0003399848937988281
ell 64, elapsed: 0.0006020069122314453
ell 63, elapsed: 0.00034618377685546875
ell 62, elapsed: 0.0007021427154541016
ell 61, elapsed: 0.00046706199645996094
ell 60, elapsed: 0.0005888938903808594
ell 59, elapsed: 0.0003948211669921875
ell 58, elapsed: 0.0006220340728759766
ell 57, elapsed: 0.00041294097900390625
ell 56, elapsed: 0.0006101131439208984
ell 55, elapsed: 0.00040411949157714844
ell 54, elapsed: 0.0006029605865478516
ell 53, elapsed: 0.00032806396484375
ell 52, elapsed: 0.0005691051483154297
ell 51, elapsed: 0.0003571510314941406
ell 50, elapsed: 0.0007269382476806641
ell 49, elapsed: 0.0004918575286865234
ell 48, elapsed: 0.0006840229034423828
ell 47, elapsed: 0.0005888938903808594
ell 46, elapsed: 0.0005550384521484375
ell 45, elapsed: 0.00034117698669433594
ell 44, elapsed: 0.000576019287109375
ell 43, elapsed: 0.00038504600524902344
ell 42, elapsed: 0.0005710124969482422
ell 41, elapsed: 0.00044083595275878906
ell 40, elapsed: 0.0004990100860595703
ell 39, elapsed: 0.0004010200500488281
ell 38, elapsed: 0.0005869865417480469
ell 37, elapsed: 0.00036406517028808594
ell 36, elapsed: 0.0005409717559814453
ell 35, elapsed: 0.0003399848937988281
ell 34, elapsed: 0.0004868507385253906
ell 33, elapsed: 0.0003371238708496094
ell 32, elapsed: 0.000492095947265625
ell 31, elapsed: 0.0003390312194824219
ell 30, elapsed: 0.0005028247833251953
ell 29, elapsed: 0.00038313865661621094
ell 28, elapsed: 0.0005800724029541016
ell 27, elapsed: 0.00039315223693847656
ell 26, elapsed: 0.0005919933319091797
ell 25, elapsed: 0.00042319297790527344
ell 24, elapsed: 0.0005350112915039062
ell 23, elapsed: 0.0003979206085205078
ell 22, elapsed: 0.0004930496215820312
ell 21, elapsed: 0.0004010200500488281
ell 20, elapsed: 0.0005269050598144531
ell 19, elapsed: 0.00035500526428222656
ell 18, elapsed: 0.0004858970642089844
ell 17, elapsed: 0.0004010200500488281
ell 16, elapsed: 0.0006220340728759766
ell 15, elapsed: 0.00040793418884277344
ell 14, elapsed: 0.0006120204925537109
ell 13, elapsed: 0.0004019737243652344
ell 12, elapsed: 0.0006420612335205078
ell 11, elapsed: 0.00037097930908203125
ell 10, elapsed: 0.0006139278411865234
ell 9, elapsed: 0.0005640983581542969
ell 8, elapsed: 0.0005450248718261719
ell 7, elapsed: 0.00037598609924316406
ell 6, elapsed: 0.0006291866302490234
ell 5, elapsed: 0.0004630088806152344
ell 4, elapsed: 0.0004911422729492188
ell 3, elapsed: 0.0003371238708496094
ell 2, elapsed: 0.0005090236663818359
ell 1, elapsed: 0.0003440380096435547
ell 0, elapsed: 0.00045108795166015625
  0.143481 seconds (10.83 k allocations: 697.938 KiB)
elapsed: 0.000637054443359375
step:          0.053258 sec (0 allocations: 0 byte, 0.0% gc time)
swapping:      0.000636 sec (0 allocations: 0 byte, 0.0% gc time)
calc_Mellell!: 0.001371 sec (0 allocations: 0 byte, 0.0% gc time)
  t0 :  0.000502 sec (0 allocations: 0 byte, 0.0% gc time)
  tm2 : 0.012457 sec (0 allocations: 0 byte, 0.0% gc time)
  tm2s: 0.000422 sec (0 allocations: 0 byte, 0.0% gc time)
  tm4 : 0.025013 sec (0 allocations: 0 byte, 0.0% gc time)
  tp2 : 0.0 sec (0 allocations: 0 byte, 0.0% gc time)
  tp2s: 0.0 sec (0 allocations: 0 byte, 0.0% gc time)
  tp4 : 0.0 sec (0 allocations: 0 byte, 0.0% gc time)
calc_wtdll!:   0.039451 sec (1.344 k allocations: 147.0 KB, 0.0% gc time)
calc_wljj!:    0.003458 sec (6 allocations: 96 byte, 0.0% gc time)
mult_prefac!:  0.0 sec (0 allocations: 0 byte, 0.0% gc time)
convert:       0.0 sec (0 allocations: 0 byte, 0.0% gc time)
write:         0.009681 sec (0 allocations: 0 byte, 0.0% gc time)
test_rand_2f1: 0.0 sec (0 allocations: 0 byte, 0.0% gc time)
Closing outfile out/Ml21-cache.bin...   0.001384 seconds
  0.001015 seconds (46 allocations: 28.109 KiB)
make_phi():   0.001654 seconds (8.19 k allocations: 237.828 KiB)
  0.014493 seconds (12.10 k allocations: 322.000 KiB)
tskip:       1.9e-5 sec (0 allocations: 0 byte, 0.0% gc time)
tread:       0.002398 sec (19 allocations: 2.172 KB, 0.0% gc time)
tmultphi:    0.000902 sec (0 allocations: 0 byte, 0.0% gc time)
tbrfft:      0.005588 sec (896 allocations: 42.0 KB, 0.0% gc time)
tmultprefac: 0.001637 sec (0 allocations: 0 byte, 0.0% gc time)
toutfunc:    0.003882 sec (10.528 k allocations: 206.5 KB, 0.0% gc time)
Testing R=0.9 ... passed
Calculating fmax: 
  dlrec    = 4
  dlrecRg1 = -4
  q=1.1, R=0.8:	  0.205807 seconds (113.58 k allocations: 15.156 MiB)

  0.206420 seconds (113.62 k allocations: 15.190 MiB)
ℓ = 1202
Δℓ = 4
ΔℓRg1 = -4
N = 1600
q = 1.1
kmin = 1.0e-5
kmax = 100000.00000000004
χ0 = 0.023029999999999995
RR = RR.tsv
ℓmax = ℓmax.bin
f21 = f21.bin
kmin = 1.0e-5
kmax = 100000.0
dlrec    = 4
dlrecRg1 = -4
Output size: 5741568 bytes = 0.005347251892089844 GiB
Output size: 51264 bytes = 4.774332046508789e-5 GiB
Reading 'out/F21EllCache'...   0.001073 seconds (267 allocations: 84.656 KiB)
ellmax: 1202
lmaxcache: 1202
fell[:,1,1] = Complex{Float64}[7.519068145690986e-120 - 1.8416405474382574e-135im, 7.541664537386155e-120 - 1.847175067190611e-135im]
ell 1202, elapsed: 0.00014519691467285156
ell 1201, elapsed: 0.00038695335388183594
ell 1200, elapsed: 0.0003380775451660156
ell 1199, elapsed: 0.0003509521484375
ell 1198, elapsed: 0.0003561973571777344
ell 1002, elapsed: 0.009467840194702148
ell 1001, elapsed: 0.0003409385681152344
ell 1000, elapsed: 0.00047397613525390625
ell 999, elapsed: 0.00037789344787597656
ell 998, elapsed: 0.000415802001953125
ell 902, elapsed: 0.005154848098754883
ell 901, elapsed: 0.0003540515899658203
ell 900, elapsed: 0.0003349781036376953
ell 899, elapsed: 0.00043392181396484375
ell 898, elapsed: 0.0003180503845214844
ell 802, elapsed: 0.005009174346923828
ell 801, elapsed: 0.0003631114959716797
ell 800, elapsed: 0.00032401084899902344
ell 799, elapsed: 0.0003428459167480469
ell 798, elapsed: 0.00032401084899902344
ell 702, elapsed: 0.004848003387451172
ell 701, elapsed: 0.0003478527069091797
ell 700, elapsed: 0.0003170967102050781
ell 699, elapsed: 0.0003249645233154297
ell 698, elapsed: 0.0003349781036376953
ell 602, elapsed: 0.0048351287841796875
ell 601, elapsed: 0.0003590583801269531
ell 600, elapsed: 0.0003399848937988281
ell 599, elapsed: 0.0003199577331542969
ell 598, elapsed: 0.0003371238708496094
ell 502, elapsed: 0.004747867584228516
ell 501, elapsed: 0.00033402442932128906
ell 500, elapsed: 0.0003440380096435547
ell 499, elapsed: 0.0003299713134765625
ell 498, elapsed: 0.00034689903259277344
ell 402, elapsed: 0.005031108856201172
ell 401, elapsed: 0.0004019737243652344
ell 400, elapsed: 0.0003731250762939453
ell 399, elapsed: 0.0003390312194824219
ell 398, elapsed: 0.00032401084899902344
ell 302, elapsed: 0.004829883575439453
ell 301, elapsed: 0.0003478527069091797
ell 300, elapsed: 0.00032711029052734375
ell 299, elapsed: 0.0003371238708496094
ell 298, elapsed: 0.0003180503845214844
ell 202, elapsed: 0.00500798225402832
ell 201, elapsed: 0.0003509521484375
ell 200, elapsed: 0.0003349781036376953
ell 199, elapsed: 0.0003299713134765625
ell 198, elapsed: 0.0003190040588378906
ell 152, elapsed: 0.0024950504302978516
ell 151, elapsed: 0.00034308433532714844
ell 150, elapsed: 0.0003261566162109375
ell 149, elapsed: 0.0003268718719482422
ell 148, elapsed: 0.0003209114074707031
ell 127, elapsed: 0.0015740394592285156
ell 126, elapsed: 0.00032901763916015625
ell 125, elapsed: 0.0003170967102050781
ell 124, elapsed: 0.00033402442932128906
ell 123, elapsed: 0.00032901763916015625
ell 114, elapsed: 0.0007429122924804688
ell 113, elapsed: 0.00036215782165527344
ell 112, elapsed: 0.00032711029052734375
ell 111, elapsed: 0.0003578662872314453
ell 110, elapsed: 0.0004360675811767578
ell 102, elapsed: 0.0008699893951416016
ell 101, elapsed: 0.0003249645233154297
ell 100, elapsed: 0.00032901763916015625
ell 99, elapsed: 0.0003299713134765625
ell 98, elapsed: 0.0003750324249267578
ell 97, elapsed: 0.00037789344787597656
ell 96, elapsed: 0.0005908012390136719
ell 95, elapsed: 0.0004010200500488281
ell 94, elapsed: 0.0005950927734375
ell 93, elapsed: 0.0004057884216308594
ell 92, elapsed: 0.0005879402160644531
ell 91, elapsed: 0.0004220008850097656
ell 90, elapsed: 0.0006430149078369141
ell 89, elapsed: 0.00041604042053222656
ell 88, elapsed: 0.0005578994750976562
ell 87, elapsed: 0.0004210472106933594
ell 86, elapsed: 0.0005910396575927734
ell 85, elapsed: 0.00041985511779785156
ell 84, elapsed: 0.0006361007690429688
ell 83, elapsed: 0.0004878044128417969
ell 82, elapsed: 0.0006051063537597656
ell 81, elapsed: 0.0004210472106933594
ell 80, elapsed: 0.0005850791931152344
ell 79, elapsed: 0.0004010200500488281
ell 78, elapsed: 0.0006289482116699219
ell 77, elapsed: 0.0004620552062988281
ell 76, elapsed: 0.0005819797515869141
ell 75, elapsed: 0.00039196014404296875
ell 74, elapsed: 0.0005929470062255859
ell 73, elapsed: 0.0004520416259765625
ell 72, elapsed: 0.0006661415100097656
ell 71, elapsed: 0.00042510032653808594
ell 70, elapsed: 0.0006170272827148438
ell 69, elapsed: 0.0004191398620605469
ell 68, elapsed: 0.0006091594696044922
ell 67, elapsed: 0.00038504600524902344
ell 66, elapsed: 0.0005300045013427734
ell 65, elapsed: 0.0003650188446044922
ell 64, elapsed: 0.0005068778991699219
ell 63, elapsed: 0.00034999847412109375
ell 62, elapsed: 0.00046706199645996094
ell 61, elapsed: 0.0003750324249267578
ell 60, elapsed: 0.0005660057067871094
ell 59, elapsed: 0.00040411949157714844
ell 58, elapsed: 0.0005249977111816406
ell 57, elapsed: 0.00037789344787597656
ell 56, elapsed: 0.0005240440368652344
ell 55, elapsed: 0.0003681182861328125
ell 54, elapsed: 0.0004990100860595703
ell 53, elapsed: 0.0003781318664550781
ell 52, elapsed: 0.0004940032958984375
ell 51, elapsed: 0.0003821849822998047
ell 50, elapsed: 0.0005509853363037109
ell 49, elapsed: 0.0003612041473388672
ell 48, elapsed: 0.0005331039428710938
ell 47, elapsed: 0.0003650188446044922
ell 46, elapsed: 0.0005140304565429688
ell 45, elapsed: 0.0003800392150878906
ell 44, elapsed: 0.0005478858947753906
ell 43, elapsed: 0.0003631114959716797
ell 42, elapsed: 0.0005271434783935547
ell 41, elapsed: 0.0003509521484375
ell 40, elapsed: 0.0005381107330322266
ell 39, elapsed: 0.0003859996795654297
ell 38, elapsed: 0.0005991458892822266
ell 37, elapsed: 0.00034117698669433594
ell 36, elapsed: 0.0005099773406982422
ell 35, elapsed: 0.0003650188446044922
[...]
ell 788, elapsed: 0.0006120204925537109
ell 782, elapsed: 0.0017619132995605469
ell 781, elapsed: 0.0007109642028808594
ell 780, elapsed: 0.0006248950958251953
ell 779, elapsed: 0.0006310939788818359
ell 778, elapsed: 0.0005970001220703125
ell 772, elapsed: 0.0016179084777832031
ell 771, elapsed: 0.0006620883941650391
ell 770, elapsed: 0.0006499290466308594
ell 769, elapsed: 0.0006401538848876953
ell 768, elapsed: 0.001728057861328125
ell 762, elapsed: 0.0019960403442382812
ell 761, elapsed: 0.0006930828094482422
ell 760, elapsed: 0.00080108642578125
ell 759, elapsed: 0.0006968975067138672
ell 758, elapsed: 0.0008480548858642578
ell 752, elapsed: 0.0026259422302246094
ell 751, elapsed: 0.0007300376892089844
ell 750, elapsed: 0.0007610321044921875
ell 749, elapsed: 0.0008008480072021484
ell 748, elapsed: 0.0007131099700927734
ell 742, elapsed: 0.0017540454864501953
ell 741, elapsed: 0.0006699562072753906
ell 740, elapsed: 0.0006659030914306641
ell 739, elapsed: 0.0006809234619140625
ell 738, elapsed: 0.0008068084716796875
ell 732, elapsed: 0.0015349388122558594
ell 731, elapsed: 0.0005450248718261719
ell 730, elapsed: 0.0005509853363037109
ell 729, elapsed: 0.0006678104400634766
ell 728, elapsed: 0.0005450248718261719
ell 722, elapsed: 0.0013899803161621094
ell 721, elapsed: 0.0005490779876708984
ell 720, elapsed: 0.0005631446838378906
ell 719, elapsed: 0.0007188320159912109
ell 718, elapsed: 0.0005779266357421875
ell 712, elapsed: 0.001672983169555664
ell 711, elapsed: 0.0005838871002197266
ell 710, elapsed: 0.000614166259765625
ell 709, elapsed: 0.0007200241088867188
ell 708, elapsed: 0.0005888938903808594
ell 702, elapsed: 0.0015020370483398438
ell 701, elapsed: 0.0006170272827148438
ell 700, elapsed: 0.0008599758148193359
ell 699, elapsed: 0.0005550384521484375
ell 698, elapsed: 0.0006139278411865234
ell 692, elapsed: 0.0021131038665771484
ell 691, elapsed: 0.0019659996032714844
ell 690, elapsed: 0.0009119510650634766
ell 689, elapsed: 0.0008380413055419922
ell 688, elapsed: 0.0009720325469970703
ell 682, elapsed: 0.0020711421966552734
ell 681, elapsed: 0.0012080669403076172
ell 680, elapsed: 0.0008761882781982422
ell 679, elapsed: 0.0008828639984130859
ell 678, elapsed: 0.0008921623229980469
ell 672, elapsed: 0.002095937728881836
ell 671, elapsed: 0.0007071495056152344
ell 670, elapsed: 0.0008809566497802734
ell 669, elapsed: 0.0010068416595458984
ell 668, elapsed: 0.0007631778717041016
ell 662, elapsed: 0.0019989013671875
ell 661, elapsed: 0.0009758472442626953
ell 660, elapsed: 0.0007531642913818359
ell 659, elapsed: 0.000988006591796875
ell 658, elapsed: 0.0007970333099365234
ell 652, elapsed: 0.002145051956176758
ell 651, elapsed: 0.0008208751678466797
ell 650, elapsed: 0.0007748603820800781
ell 649, elapsed: 0.0009679794311523438
ell 648, elapsed: 0.0007748603820800781
ell 642, elapsed: 0.002279043197631836
ell 641, elapsed: 0.0009911060333251953
ell 640, elapsed: 0.0007829666137695312
ell 639, elapsed: 0.0007951259613037109
ell 638, elapsed: 0.0008020401000976562
ell 632, elapsed: 0.002135038375854492
ell 631, elapsed: 0.0008699893951416016
ell 630, elapsed: 0.0008060932159423828
ell 629, elapsed: 0.0009579658508300781
ell 628, elapsed: 0.0008270740509033203
ell 622, elapsed: 0.0023229122161865234
ell 621, elapsed: 0.0010008811950683594
ell 620, elapsed: 0.0008671283721923828
ell 619, elapsed: 0.0008521080017089844
ell 618, elapsed: 0.0009150505065917969
ell 612, elapsed: 0.0024099349975585938
ell 611, elapsed: 0.0009849071502685547
ell 610, elapsed: 0.001216888427734375
ell 609, elapsed: 0.0009250640869140625
ell 608, elapsed: 0.0009648799896240234
ell 602, elapsed: 0.0024199485778808594
ell 601, elapsed: 0.0008618831634521484
ell 600, elapsed: 0.000782012939453125
ell 599, elapsed: 0.0008778572082519531
ell 598, elapsed: 0.0008161067962646484
ell 592, elapsed: 0.002061128616333008
ell 591, elapsed: 0.0009529590606689453
ell 590, elapsed: 0.0007622241973876953
ell 589, elapsed: 0.0008089542388916016
ell 588, elapsed: 0.0007970333099365234
ell 582, elapsed: 0.002131938934326172
ell 581, elapsed: 0.0008599758148193359
ell 580, elapsed: 0.0007970333099365234
ell 579, elapsed: 0.0008480548858642578
ell 578, elapsed: 0.0007419586181640625
ell 572, elapsed: 0.0020220279693603516
ell 571, elapsed: 0.00092315673828125
ell 570, elapsed: 0.0007779598236083984
ell 569, elapsed: 0.0008139610290527344
ell 568, elapsed: 0.0007829666137695312
ell 562, elapsed: 0.0020630359649658203
ell 561, elapsed: 0.00074005126953125
ell 560, elapsed: 0.0007381439208984375
ell 559, elapsed: 0.0007588863372802734
ell 558, elapsed: 0.0007791519165039062
ell 552, elapsed: 0.0019500255584716797
ell 551, elapsed: 0.0007710456848144531
ell 550, elapsed: 0.0007588863372802734
ell 549, elapsed: 0.0007300376892089844
ell 548, elapsed: 0.0007190704345703125
ell 542, elapsed: 0.001970052719116211
ell 541, elapsed: 0.000823974609375
ell 540, elapsed: 0.0007331371307373047
ell 539, elapsed: 0.0006990432739257812
ell 538, elapsed: 0.0006880760192871094
ell 532, elapsed: 0.0018548965454101562
ell 531, elapsed: 0.0006699562072753906
ell 530, elapsed: 0.0006949901580810547
ell 529, elapsed: 0.0006690025329589844
ell 528, elapsed: 0.0006840229034423828
ell 522, elapsed: 0.0018699169158935547
ell 521, elapsed: 0.000698089599609375
ell 520, elapsed: 0.0006771087646484375
ell 519, elapsed: 0.0006577968597412109
ell 518, elapsed: 0.0006959438323974609
ell 512, elapsed: 0.0018661022186279297
ell 511, elapsed: 0.0007121562957763672
ell 510, elapsed: 0.0007700920104980469
ell 509, elapsed: 0.0007069110870361328
ell 508, elapsed: 0.0006930828094482422
ell 502, elapsed: 0.0018270015716552734
ell 501, elapsed: 0.0008101463317871094
ell 500, elapsed: 0.0007328987121582031
ell 499, elapsed: 0.0007140636444091797
ell 498, elapsed: 0.0007240772247314453
ell 492, elapsed: 0.0018620491027832031
ell 491, elapsed: 0.0007510185241699219
ell 490, elapsed: 0.0007491111755371094
ell 489, elapsed: 0.0007557868957519531
ell 488, elapsed: 0.0007529258728027344
ell 482, elapsed: 0.0019261837005615234
ell 481, elapsed: 0.0007641315460205078
ell 480, elapsed: 0.0007088184356689453
ell 479, elapsed: 0.0009288787841796875
ell 478, elapsed: 0.0007359981536865234
ell 472, elapsed: 0.0018548965454101562
ell 471, elapsed: 0.0007491111755371094
ell 470, elapsed: 0.0008289813995361328
ell 469, elapsed: 0.0007250308990478516
ell 468, elapsed: 0.0006978511810302734
ell 462, elapsed: 0.0018410682678222656
ell 461, elapsed: 0.0008308887481689453
ell 460, elapsed: 0.0007839202880859375
ell 459, elapsed: 0.0008039474487304688
ell 458, elapsed: 0.0008108615875244141
ell 452, elapsed: 0.0020339488983154297
ell 451, elapsed: 0.0007300376892089844
ell 450, elapsed: 0.0007660388946533203
ell 449, elapsed: 0.0007450580596923828
ell 448, elapsed: 0.0007090568542480469
ell 442, elapsed: 0.002012968063354492
ell 441, elapsed: 0.0007569789886474609
ell 440, elapsed: 0.000782012939453125
ell 439, elapsed: 0.0008418560028076172
ell 438, elapsed: 0.0008029937744140625
ell 432, elapsed: 0.002134084701538086
ell 431, elapsed: 0.0009491443634033203
ell 430, elapsed: 0.0008130073547363281
ell 429, elapsed: 0.0008218288421630859
ell 428, elapsed: 0.000865936279296875
ell 422, elapsed: 0.0020580291748046875
ell 421, elapsed: 0.0008220672607421875
ell 420, elapsed: 0.0007791519165039062
ell 419, elapsed: 0.0007939338684082031
ell 418, elapsed: 0.0007710456848144531
ell 412, elapsed: 0.002019166946411133
ell 411, elapsed: 0.0009059906005859375
ell 410, elapsed: 0.0009419918060302734
ell 409, elapsed: 0.0008699893951416016
ell 408, elapsed: 0.000820159912109375
ell 402, elapsed: 0.0024640560150146484
ell 401, elapsed: 0.0010628700256347656
ell 400, elapsed: 0.0009241104125976562
ell 399, elapsed: 0.0012869834899902344
ell 398, elapsed: 0.001020193099975586
ell 392, elapsed: 0.0021848678588867188
ell 391, elapsed: 0.0008001327514648438
ell 390, elapsed: 0.0007340908050537109
ell 389, elapsed: 0.000720977783203125
ell 388, elapsed: 0.0007510185241699219
ell 382, elapsed: 0.0019459724426269531
ell 381, elapsed: 0.0007371902465820312
ell 380, elapsed: 0.0007388591766357422
ell 379, elapsed: 0.0009219646453857422
ell 378, elapsed: 0.0006799697875976562
ell 372, elapsed: 0.0018720626831054688
ell 371, elapsed: 0.0006809234619140625
ell 370, elapsed: 0.0008969306945800781
ell 369, elapsed: 0.0006690025329589844
ell 368, elapsed: 0.0007040500640869141
ell 362, elapsed: 0.0019919872283935547
ell 361, elapsed: 0.0007550716400146484
ell 360, elapsed: 0.0007240772247314453
ell 359, elapsed: 0.0008060932159423828
ell 358, elapsed: 0.0009229183197021484
ell 352, elapsed: 0.002157926559448242
ell 351, elapsed: 0.0009281635284423828
ell 350, elapsed: 0.0007660388946533203
ell 349, elapsed: 0.0006389617919921875
ell 348, elapsed: 0.0006392002105712891
ell 342, elapsed: 0.0015871524810791016
ell 341, elapsed: 0.0006101131439208984
ell 340, elapsed: 0.0008399486541748047
ell 339, elapsed: 0.0005979537963867188
ell 338, elapsed: 0.0005888938903808594
ell 332, elapsed: 0.0014789104461669922
ell 331, elapsed: 0.00072479248046875
ell 330, elapsed: 0.0006530284881591797
ell 329, elapsed: 0.0006449222564697266
ell 328, elapsed: 0.0006608963012695312
ell 322, elapsed: 0.0016360282897949219
ell 321, elapsed: 0.0006771087646484375
ell 320, elapsed: 0.0006451606750488281
ell 319, elapsed: 0.0006299018859863281
ell 318, elapsed: 0.0006449222564697266
ell 312, elapsed: 0.0016160011291503906
ell 311, elapsed: 0.0006470680236816406
ell 310, elapsed: 0.0006320476531982422
ell 309, elapsed: 0.0006361007690429688
ell 308, elapsed: 0.0006430149078369141
ell 302, elapsed: 0.0015320777893066406
ell 301, elapsed: 0.0006310939788818359
ell 300, elapsed: 0.000637054443359375
ell 299, elapsed: 0.0006392002105712891
ell 298, elapsed: 0.0006718635559082031
ell 292, elapsed: 0.0015938282012939453
ell 291, elapsed: 0.0006928443908691406
ell 290, elapsed: 0.0006439685821533203
ell 289, elapsed: 0.0006849765777587891
ell 288, elapsed: 0.0006740093231201172
ell 282, elapsed: 0.0016829967498779297
ell 281, elapsed: 0.0006721019744873047
ell 280, elapsed: 0.0006480216979980469
ell 279, elapsed: 0.0006730556488037109
ell 278, elapsed: 0.0006690025329589844
ell 272, elapsed: 0.0017428398132324219
ell 271, elapsed: 0.0007159709930419922
ell 270, elapsed: 0.0006949901580810547
ell 269, elapsed: 0.0006780624389648438
ell 268, elapsed: 0.0006718635559082031
ell 262, elapsed: 0.0017578601837158203
ell 261, elapsed: 0.0007040500640869141
ell 260, elapsed: 0.0006930828094482422
ell 259, elapsed: 0.0007169246673583984
ell 258, elapsed: 0.0007162094116210938
ell 252, elapsed: 0.0019459724426269531
ell 251, elapsed: 0.0007600784301757812
ell 250, elapsed: 0.0008819103240966797
ell 249, elapsed: 0.0007109642028808594
ell 248, elapsed: 0.0007319450378417969
ell 242, elapsed: 0.0016210079193115234
ell 241, elapsed: 0.0006949901580810547
ell 240, elapsed: 0.0006339550018310547
ell 239, elapsed: 0.0006518363952636719
ell 238, elapsed: 0.0006418228149414062
ell 232, elapsed: 0.0016560554504394531
ell 231, elapsed: 0.0006639957427978516
ell 230, elapsed: 0.0006890296936035156
ell 229, elapsed: 0.0007789134979248047
ell 228, elapsed: 0.0007300376892089844
ell 222, elapsed: 0.0017480850219726562
ell 221, elapsed: 0.0007410049438476562
ell 220, elapsed: 0.0008170604705810547
ell 219, elapsed: 0.0006651878356933594
ell 218, elapsed: 0.0006489753723144531
ell 212, elapsed: 0.0015821456909179688
ell 211, elapsed: 0.0008249282836914062
ell 210, elapsed: 0.0006549358367919922
ell 209, elapsed: 0.0006570816040039062
ell 208, elapsed: 0.0006558895111083984
ell 202, elapsed: 0.0015909671783447266
ell 201, elapsed: 0.0006618499755859375
ell 200, elapsed: 0.0006501674652099609
ell 199, elapsed: 0.0006499290466308594
ell 198, elapsed: 0.0006439685821533203
ell 192, elapsed: 0.0015399456024169922
ell 191, elapsed: 0.0006389617919921875
ell 190, elapsed: 0.0006210803985595703
ell 189, elapsed: 0.0006301403045654297
ell 188, elapsed: 0.0006499290466308594
ell 182, elapsed: 0.0015268325805664062
ell 181, elapsed: 0.0006508827209472656
ell 180, elapsed: 0.0006229877471923828
ell 179, elapsed: 0.0006539821624755859
ell 178, elapsed: 0.0007030963897705078
ell 172, elapsed: 0.0016069412231445312
ell 171, elapsed: 0.0006740093231201172
ell 170, elapsed: 0.0006618499755859375
ell 169, elapsed: 0.0006740093231201172
ell 168, elapsed: 0.0006320476531982422
ell 162, elapsed: 0.0016219615936279297
ell 161, elapsed: 0.0008060932159423828
ell 160, elapsed: 0.0009229183197021484
ell 159, elapsed: 0.000993967056274414
ell 158, elapsed: 0.0009050369262695312
ell 152, elapsed: 0.002180814743041992
ell 151, elapsed: 0.0019161701202392578
ell 150, elapsed: 0.0010540485382080078
ell 149, elapsed: 0.000823974609375
ell 148, elapsed: 0.0008070468902587891
ell 142, elapsed: 0.0021071434020996094
ell 141, elapsed: 0.0008389949798583984
ell 140, elapsed: 0.0008361339569091797
ell 139, elapsed: 0.0008678436279296875
ell 138, elapsed: 0.0007932186126708984
ell 132, elapsed: 0.002337932586669922
ell 131, elapsed: 0.0009121894836425781
ell 130, elapsed: 0.0008242130279541016
ell 129, elapsed: 0.0008361339569091797
ell 128, elapsed: 0.003818035125732422
ell 122, elapsed: 0.002050161361694336
ell 121, elapsed: 0.0008080005645751953
ell 120, elapsed: 0.0008039474487304688
ell 119, elapsed: 0.0008418560028076172
ell 118, elapsed: 0.0007729530334472656
ell 112, elapsed: 0.0017991065979003906
ell 111, elapsed: 0.0007960796356201172
ell 110, elapsed: 0.0007979869842529297
ell 109, elapsed: 0.0007829666137695312
ell 108, elapsed: 0.0007410049438476562
ell 102, elapsed: 0.0020029544830322266
ell 101, elapsed: 0.0026748180389404297
ell 100, elapsed: 0.002651214599609375
ell 99, elapsed: 0.0027740001678466797
ell 98, elapsed: 0.0028738975524902344
ell 92, elapsed: 0.005758047103881836
ell 91, elapsed: 0.0028350353240966797
ell 90, elapsed: 0.002856016159057617
ell 89, elapsed: 0.003000974655151367
ell 88, elapsed: 0.0029439926147460938
ell 82, elapsed: 0.006007194519042969
ell 81, elapsed: 0.003247976303100586
ell 80, elapsed: 0.0030541419982910156
ell 79, elapsed: 0.0030219554901123047
ell 78, elapsed: 0.0030870437622070312
ell 72, elapsed: 0.006088972091674805
ell 71, elapsed: 0.002931833267211914
ell 70, elapsed: 0.0030739307403564453
ell 69, elapsed: 0.0028939247131347656
ell 68, elapsed: 0.0031299591064453125
ell 62, elapsed: 0.006414175033569336
ell 61, elapsed: 0.0037279129028320312
ell 60, elapsed: 0.003370046615600586
ell 59, elapsed: 0.0030448436737060547
ell 58, elapsed: 0.0029478073120117188
ell 52, elapsed: 0.006268024444580078
ell 51, elapsed: 0.0030710697174072266
ell 50, elapsed: 0.0028929710388183594
ell 49, elapsed: 0.002971172332763672
ell 48, elapsed: 0.002871990203857422
ell 42, elapsed: 0.005980014801025391
ell 41, elapsed: 0.0030481815338134766
ell 40, elapsed: 0.0028700828552246094
ell 39, elapsed: 0.0028100013732910156
ell 38, elapsed: 0.0028929710388183594
ell 32, elapsed: 0.005728006362915039
ell 31, elapsed: 0.002866029739379883
ell 30, elapsed: 0.0027790069580078125
ell 29, elapsed: 0.002830028533935547
ell 28, elapsed: 0.002880096435546875
ell 22, elapsed: 0.005759000778198242
ell 21, elapsed: 0.0027959346771240234
ell 20, elapsed: 0.0028221607208251953
ell 19, elapsed: 0.002802133560180664
ell 18, elapsed: 0.0028579235076904297
ell 12, elapsed: 0.006062984466552734
ell 11, elapsed: 0.002933025360107422
ell 10, elapsed: 0.002744913101196289
ell 9, elapsed: 0.0026268959045410156
ell 8, elapsed: 0.0026581287384033203
  0.780427 seconds (66.75 k allocations: 12.139 MiB)
elapsed: 0.003895998001098633
step:          0.05593 sec (0 allocations: 0 byte, 0.0% gc time)
swapping:      0.001053 sec (0 allocations: 0 byte, 0.0% gc time)
calc_Mellell!: 0.029547 sec (0 allocations: 0 byte, 0.0% gc time)
  t0 :  0.015895 sec (0 allocations: 0 byte, 0.0% gc time)
  tm2 : 0.054533 sec (0 allocations: 0 byte, 0.0% gc time)
  tm2s: 0.013294 sec (0 allocations: 0 byte, 0.0% gc time)
  tm4 : 0.14833 sec (0 allocations: 0 byte, 0.0% gc time)
  tp2 : 0.0 sec (0 allocations: 0 byte, 0.0% gc time)
  tp2s: 0.0 sec (0 allocations: 0 byte, 0.0% gc time)
  tp4 : 0.0 sec (0 allocations: 0 byte, 0.0% gc time)
calc_wtdll!:   0.444511 sec (49.2 k allocations: 11.133 MB, 0.0% gc time)
calc_wljj!:    0.044481 sec (69 allocations: 1.078 KB, 0.0% gc time)
mult_prefac!:  0.0 sec (0 allocations: 0 byte, 0.0% gc time)
convert:       0.0 sec (0 allocations: 0 byte, 0.0% gc time)
write:         0.067526 sec (0 allocations: 0 byte, 0.0% gc time)
test_rand_2f1: 0.0 sec (0 allocations: 0 byte, 0.0% gc time)
Closing outfile out/MlCache/MlCache.bin...   0.000015 seconds
xi, l=0, nu=0:   0.435315 seconds (556.62 k allocations: 27.093 MiB)
xi, l=0, nu=-2:  0.001613 seconds (132 allocations: 149.188 KiB)
Created 'out/xi.tsv'.
  q=1.1, R=0.6:	  0.436510 seconds (291.28 k allocations: 38.929 MiB, 11.79% gc time)
  q=1.1, R=0.7:	  0.470433 seconds (304.52 k allocations: 40.964 MiB, 3.72% gc time)
  q=1.1, R=0.8:	  0.500221 seconds (299.43 k allocations: 40.175 MiB, 3.88% gc time)
  q=1.1, R=0.9:	  0.582954 seconds (293.60 k allocations: 39.285 MiB, 3.38% gc time)
  q=1.1, R=0.998:	 19.050097 seconds (10.67 M allocations: 823.453 MiB, 0.77% gc time)
  q=1.1, R=1.0:	  0.003249 seconds (10.24 k allocations: 768.375 KiB)

ℓ = 1000
Δℓ = 4
ΔℓRg1 = -4
N = 4096
q = 1.1
kmin = 1.0e-5
kmax = 1000.0
χ0 = 0.001
RR = RR.tsv
ℓmax = ℓmax.bin
f21 = f21.bin
kmin = 1.0e-5
kmax = 1000.0
dlrec    = 4
dlrecRg1 = -4
Output size: 1573632 bytes = 0.0014655590057373047 GiB
Output size: 786816 bytes = 0.0007327795028686523 GiB
Reading 'out/F21EllCache'...   0.001634 seconds (268 allocations: 533.531 KiB)
ellmax: 1002
lmaxcache: 1000
fell[:,1,1] = Complex{Float64}[1.7262928128202118e-224 - 4.2281979352226944e-240im, 1.7282693092099662e-224 - 4.233038955177176e-240im]
ell 1002, elapsed: 7.009506225585938e-5
ell 1001, elapsed: 0.0011589527130126953
ell 1000, elapsed: 0.001062154769897461
ell 999, elapsed: 0.004475831985473633
ell 998, elapsed: 0.004503011703491211
ell 44, elapsed: 0.6450998783111572
ell 43, elapsed: 0.004163980484008789
ell 42, elapsed: 0.004260063171386719
ell 41, elapsed: 0.004496097564697266
ell 40, elapsed: 0.004527091979980469
  0.681551 seconds (4.55 k allocations: 320.359 KiB)
elapsed: 0.006435871124267578
step:          0.640011 sec (0 allocations: 0 byte, 0.0% gc time)
swapping:      0.000966 sec (0 allocations: 0 byte, 0.0% gc time)
calc_Mellell!: 0.001393 sec (0 allocations: 0 byte, 0.0% gc time)
  t0 :  0.000758 sec (0 allocations: 0 byte, 0.0% gc time)
  tm2 : 0.007445 sec (0 allocations: 0 byte, 0.0% gc time)
  tm2s: 0.000622 sec (0 allocations: 0 byte, 0.0% gc time)
  tm4 : 0.019754 sec (0 allocations: 0 byte, 0.0% gc time)
  tp2 : 0.0 sec (0 allocations: 0 byte, 0.0% gc time)
  tp2s: 0.0 sec (0 allocations: 0 byte, 0.0% gc time)
  tp4 : 0.0 sec (0 allocations: 0 byte, 0.0% gc time)
calc_wtdll!:   0.028935 sec (480 allocations: 52.5 KB, 0.0% gc time)
calc_wljj!:    0.001285 sec (1 allocations: 16 byte, 0.0% gc time)
mult_prefac!:  0.0 sec (0 allocations: 0 byte, 0.0% gc time)
convert:       0.0 sec (0 allocations: 0 byte, 0.0% gc time)
write:         0.001834 sec (0 allocations: 0 byte, 0.0% gc time)
test_rand_2f1: 0.0 sec (0 allocations: 0 byte, 0.0% gc time)
Closing outfile out/MlCache/MlCache.bin...   0.011160 seconds
  0.438191 seconds (48 allocations: 67.016 KiB)
make_phi():   0.008345 seconds (74 allocations: 276.109 KiB)
  0.005322 seconds (108 allocations: 5.812 KiB)
tskip:       3.0e-6 sec (0 allocations: 0 byte, 0.0% gc time)
tread:       0.001211 sec (19 allocations: 1.312 KB, 0.0% gc time)
tmultphi:    0.000393 sec (0 allocations: 0 byte, 0.0% gc time)
tbrfft:      0.002426 sec (96 allocations: 4.5 KB, 0.0% gc time)
tmultprefac: 0.001134 sec (0 allocations: 0 byte, 0.0% gc time)
toutfunc:    0.00034 sec (0 allocations: 0 byte, 0.0% gc time)
Created 'out/wl42_jj00.tsv'.
Created 'out/wl42_jj02.tsv'.
   Testing TwoFAST tests passed 
